HY-101089
Actelion Java MolfileCreator 1.0

 26 30  0  0  1  0  0  0  0  0999 V2000
    6.9920   16.4856  -58.9075 F   0  0  0  0  0  0  0  0  0  0  0  0
    6.8270   16.5407  -57.5885 C   0  0  0  0  0  0  0  0  0  0  0  0
    5.7809   17.2927  -57.0795 C   0  0  0  0  0  0  0  0  0  0  0  0
    7.6498   15.8837  -56.6825 C   0  0  0  0  0  0  0  0  0  0  0  0
    5.4819   17.4437  -55.7304 C   0  0  0  0  0  0  0  0  0  0  0  0
    7.3798   16.0148  -55.3245 C   0  0  0  0  0  0  0  0  0  0  0  0
    4.3579   18.2547  -55.3093 C   0  0  0  0  0  0  0  0  0  0  0  0
    6.3188   16.7758  -54.8364 C   0  0  0  0  0  0  0  0  0  0  0  0
    3.5279   18.9117  -56.1622 N   0  0  0  0  0  0  0  0  0  0  0  0
    4.1679   18.3277  -53.9323 C   0  0  0  0  0  0  0  0  0  0  0  0
    6.0678   16.8918  -53.4713 N   0  0  0  0  0  0  0  0  0  0  0  0
    2.5029   19.6517  -55.7122 C   0  0  0  0  0  0  0  0  0  0  0  0
    3.6418   18.8968  -57.6351 C   0  0  0  0  0  0  0  0  0  0  0  0
    4.9978   17.6667  -53.0293 C   0  0  0  0  0  0  0  0  0  0  0  0
    3.1099   19.0918  -53.4463 C   0  0  0  0  0  0  0  0  0  0  0  0
    6.9467   16.1889  -52.5203 C   0  0  0  0  0  0  0  0  0  0  0  0
    2.2778   19.7528  -54.3432 C   0  0  0  0  0  0  0  0  0  0  0  0
    1.6458   20.3277  -56.5771 C   0  0  0  0  0  0  0  0  0  0  0  0
    4.7717   17.7668  -51.6594 C   0  0  0  0  0  0  0  0  0  0  0  0
    2.8738   19.1997  -52.0813 C   0  0  0  0  0  0  0  0  0  0  0  0
    1.2218   20.5148  -53.8562 C   0  0  0  0  0  0  0  0  0  0  0  0
    0.5828   21.0976  -56.1371 C   0  0  0  0  0  0  0  0  0  0  0  0
    3.7107   18.5339  -51.1993 C   0  0  0  0  0  0  0  0  0  0  0  0
    0.4028   21.1659  -54.7661 C   0  0  0  0  0  0  0  0  0  0  0  0
    3.4686   18.6418  -49.7064 C   0  0  0  0  0  0  0  0  0  0  0  0
   -0.6012   21.8939  -54.3171 F   0  0  0  0  0  0  0  0  0  0  0  0
  1  2  1  0  0  0  0
  2  3  2  0  0  0  0
  2  4  1  0  0  0  0
  3  5  1  0  0  0  0
  4  6  2  0  0  0  0
  5  7  1  0  0  0  0
  5  8  2  0  0  0  0
  7  9  1  0  0  0  0
  7 10  2  0  0  0  0
  8 11  1  0  0  0  0
  9 12  1  0  0  0  0
  9 13  1  0  0  0  0
 10 14  1  0  0  0  0
 10 15  1  0  0  0  0
 11 16  1  0  0  0  0
 12 17  2  0  0  0  0
 12 18  1  0  0  0  0
 14 19  2  0  0  0  0
 15 20  1  0  0  0  0
 17 21  1  0  0  0  0
 18 22  1  0  0  0  0
 19 23  1  0  0  0  0
 21 24  1  0  0  0  0
 23 25  1  0  0  0  0
 24 26  1  0  0  0  0
  6  8  1  0  0  0  0
 11 14  1  0  0  0  0
 15 17  1  0  0  0  0
 20 23  2  0  0  0  0
 22 24  2  0  0  0  0
M  END
>  <MolID>
HY-101089

>  <SMILES>
Fc1ccc2c(c3N(C)C4=C(CC(=CC4)F)[C@@H]4c3c(=CC(=C4)C)n2C)c1

>  <Total Molweight>
350.411

>  <Druglikeness>
1.5678

>  <Mutagenic>
none

>  <Tumorigenic>
none

>  <Reproductive Effective>
none

>  <Irritant>
none

>  <Score>
0.9983433

$$$$
HY-Q50577
Actelion Java MolfileCreator 1.0

 47 51  0  0  0  0  0  0  0  0999 V2000
    2.3770   22.7113  -54.0522 Cl  0  0  0  0  0  0  0  0  0  0  0  0
    2.4429   20.9921  -54.2514 C   0  0  0  0  0  0  0  0  0  0  0  0
    2.2089   20.4092  -55.4540 C   0  0  0  0  0  0  0  0  0  0  0  0
    2.8506   20.2033  -53.0894 C   0  0  0  0  0  0  0  0  0  0  0  0
    2.3579   18.9535  -55.6194 C   0  0  0  0  0  0  0  0  0  0  0  0
    1.9099   21.2172  -56.6398 C   0  0  0  0  0  0  0  0  0  0  0  0
    3.1464   18.8415  -53.2980 C   0  0  0  0  0  0  0  0  0  0  0  0
    3.0303   20.7814  -51.8114 C   0  0  0  0  0  0  0  0  0  0  0  0
    1.9768   18.3800  -56.6418 O   0  0  0  0  0  0  0  0  0  0  0  0
    2.9108   18.2553  -54.5860 N   0  0  0  0  0  0  0  0  0  0  0  0
    2.7663   22.1305  -57.1051 N   0  0  0  0  0  0  0  0  0  0  0  0
    0.7767   21.0794  -57.3537 N   0  0  0  0  0  0  0  0  0  0  0  0
    3.6836   18.0957  -52.2252 C   0  0  0  0  0  0  0  0  0  0  0  0
    3.5768   20.0223  -50.7633 C   0  0  0  0  0  0  0  0  0  0  0  0
    3.2104   16.8234  -54.7795 C   0  0  0  0  0  0  0  0  0  0  0  0
    2.0982   22.6303  -58.2115 C   0  0  0  0  0  0  0  0  0  0  0  0
    0.8401   21.9908  -58.3899 C   0  0  0  0  0  0  0  0  0  0  0  0
    3.8967   18.6743  -50.9659 C   0  0  0  0  0  0  0  0  0  0  0  0
    3.9768   20.7688  -49.2674 Cl  0  0  0  0  0  0  0  0  0  0  0  0
    2.4728   23.6297  -59.1327 C   0  0  0  0  0  0  0  0  0  0  0  0
   -0.0193   22.3301  -59.4441 C   0  0  0  0  0  0  0  0  0  0  0  0
    1.6201   24.0066  -60.1999 C   0  0  0  0  0  0  0  0  0  0  0  0
    0.3727   23.3391  -60.3441 C   0  0  0  0  0  0  0  0  0  0  0  0
    2.0315   25.0318  -61.0807 N   0  0  0  0  0  0  0  0  0  0  0  0
    2.4424   26.2715  -60.4203 C   0  0  0  0  0  0  0  0  0  0  0  0
    1.2143   25.2615  -62.2721 C   0  0  0  0  0  0  0  0  0  0  0  0
    3.0189   27.2885  -61.4238 C   0  0  0  0  0  0  0  0  0  0  0  0
    1.8952   26.2625  -63.2179 C   0  0  0  0  0  0  0  0  0  0  0  0
    2.1314   27.4800  -62.5213 O   0  0  0  0  0  0  0  0  0  0  0  0
    2.8252   21.8261  -51.6298 H   0  0  0  0  0  0  0  0  0  0  0  0
    0.0518   20.3857  -57.1916 H   0  0  0  0  0  0  0  0  0  0  0  0
    3.9773   17.0767  -52.3485 H   0  0  0  0  0  0  0  0  0  0  0  0
    2.5109   16.2106  -54.2113 H   0  0  0  0  0  0  0  0  0  0  0  0
    4.2243   16.5909  -54.4538 H   0  0  0  0  0  0  0  0  0  0  0  0
    3.1620   16.4814  -55.8145 H   0  0  0  0  0  0  0  0  0  0  0  0
    4.3352   18.0933  -50.1674 H   0  0  0  0  0  0  0  0  0  0  0  0
    3.4377   24.0926  -59.0053 H   0  0  0  0  0  0  0  0  0  0  0  0
   -0.9699   21.8304  -59.5601 H   0  0  0  0  0  0  0  0  0  0  0  0
   -0.3145   23.5875  -61.1392 H   0  0  0  0  0  0  0  0  0  0  0  0
    1.5765   26.6819  -59.9091 H   0  0  0  0  0  0  0  0  0  0  0  0
    3.1928   26.0930  -59.6521 H   0  0  0  0  0  0  0  0  0  0  0  0
    1.0504   24.3224  -62.8033 H   0  0  0  0  0  0  0  0  0  0  0  0
    0.2378   25.6478  -61.9756 H   0  0  0  0  0  0  0  0  0  0  0  0
    3.9913   26.9564  -61.7900 H   0  0  0  0  0  0  0  0  0  0  0  0
    3.1766   28.2459  -60.9262 H   0  0  0  0  0  0  0  0  0  0  0  0
    2.8313   25.8588  -63.6075 H   0  0  0  0  0  0  0  0  0  0  0  0
    1.2524   26.4632  -64.0749 H   0  0  0  0  0  0  0  0  0  0  0  0
  1  2  1  0  0  0  0
  2  3  2  0  0  0  0
  2  4  1  0  0  0  0
  3  5  1  0  0  0  0
  3  6  1  0  0  0  0
  4  7  2  0  0  0  0
  4  8  1  0  0  0  0
  5  9  2  0  0  0  0
  5 10  1  0  0  0  0
  6 11  2  0  0  0  0
  6 12  1  0  0  0  0
  7 13  1  0  0  0  0
  8 14  2  0  0  0  0
 10 15  1  0  0  0  0
 11 16  1  0  0  0  0
 12 17  1  0  0  0  0
 13 18  2  0  0  0  0
 14 19  1  0  0  0  0
 16 20  2  0  0  0  0
 17 21  2  0  0  0  0
 20 22  1  0  0  0  0
 21 23  1  0  0  0  0
 22 24  1  0  0  0  0
 24 25  1  0  0  0  0
 24 26  1  0  0  0  0
 25 27  1  0  0  0  0
 26 28  1  0  0  0  0
 27 29  1  0  0  0  0
  7 10  1  0  0  0  0
 14 18  1  0  0  0  0
 16 17  1  0  0  0  0
 22 23  2  0  0  0  0
 28 29  1  0  0  0  0
  8 30  1  0  0  0  0
 12 31  1  0  0  0  0
 13 32  1  0  0  0  0
 15 33  1  0  0  0  0
 15 34  1  0  0  0  0
 15 35  1  0  0  0  0
 18 36  1  0  0  0  0
 20 37  1  0  0  0  0
 21 38  1  0  0  0  0
 23 39  1  0  0  0  0
 25 40  1  0  0  0  0
 25 41  1  0  0  0  0
 26 42  1  0  0  0  0
 26 43  1  0  0  0  0
 27 44  1  0  0  0  0
 27 45  1  0  0  0  0
 28 46  1  0  0  0  0
 28 47  1  0  0  0  0
M  END
>  <MolID>
HY-Q50577

>  <SMILES>
Cn1c(=O)c(c(Cl)c2cc(ccc12)Cl)c1nc2cc(ccc2[nH]1)N1CCOCC1

>  <Total Molweight>
429.306

>  <Druglikeness>
4.4179

>  <Mutagenic>
high

>  <Tumorigenic>
none

>  <Reproductive Effective>
none

>  <Irritant>
none

>  <Score>
0.9823733

$$$$
HY-Q02179
Actelion Java MolfileCreator 1.0

 36 38  0  0  0  0  0  0  0  0999 V2000
    3.0897   19.1404  -51.5759 S   0  0  0  0  0  0  0  0  0  0  0  0
    2.2963   19.7386  -53.0964 C   0  0  0  0  0  0  0  0  0  0  0  0
    4.3122   18.3412  -52.5352 C   0  0  0  0  0  0  0  0  0  0  0  0
    1.2172   20.4433  -53.2146 N   0  0  0  0  0  0  0  0  0  0  0  0
    3.0312   19.2890  -54.2135 N   0  0  0  0  0  0  0  0  0  0  0  0
    4.1567   18.5064  -53.8575 C   0  0  0  0  0  0  0  0  0  0  0  0
    5.4145   17.5760  -51.8248 C   0  0  0  0  0  0  0  0  0  0  0  0
    0.7375   20.7794  -54.4796 C   0  0  0  0  0  0  0  0  0  0  0  0
    2.6200   19.5740  -55.4950 C   0  0  0  0  0  0  0  0  0  0  0  0
    5.1108   17.9412  -54.9079 C   0  0  0  0  0  0  0  0  0  0  0  0
    1.4112   20.4145  -55.5958 C   0  0  0  0  0  0  0  0  0  0  0  0
   -0.5750   21.5462  -54.5146 C   0  0  0  0  0  0  0  0  0  0  0  0
    3.1750   19.1348  -56.5025 O   0  0  0  0  0  0  0  0  0  0  0  0
    0.9029   20.7467  -56.8541 N   0  0  0  0  0  0  0  0  0  0  0  0
    1.4977   21.5486  -57.7521 C   0  0  0  0  0  0  0  0  0  0  0  0
    2.5860   22.0998  -57.5797 O   0  0  0  0  0  0  0  0  0  0  0  0
    0.7220   21.7076  -59.0255 C   0  0  0  0  0  0  0  0  0  0  0  0
    1.4031   21.5968  -60.1885 N   0  0  0  0  0  0  0  0  0  0  0  0
   -0.6720   21.9466  -58.9817 C   0  0  0  0  0  0  0  0  0  0  0  0
    0.7141   21.6849  -61.3443 C   0  0  0  0  0  0  0  0  0  0  0  0
   -1.3828   22.0338  -60.1907 C   0  0  0  0  0  0  0  0  0  0  0  0
   -0.6764   21.8862  -61.3965 C   0  0  0  0  0  0  0  0  0  0  0  0
    5.6158   16.6233  -52.3168 H   0  0  0  0  0  0  0  0  0  0  0  0
    5.1338   17.3670  -50.7917 H   0  0  0  0  0  0  0  0  0  0  0  0
    6.3351   18.1597  -51.8110 H   0  0  0  0  0  0  0  0  0  0  0  0
    5.4862   18.7300  -55.5608 H   0  0  0  0  0  0  0  0  0  0  0  0
    4.6129   17.1823  -55.5128 H   0  0  0  0  0  0  0  0  0  0  0  0
    5.9837   17.4741  -54.4535 H   0  0  0  0  0  0  0  0  0  0  0  0
   -1.3869   20.8900  -54.2009 H   0  0  0  0  0  0  0  0  0  0  0  0
   -0.5398   22.3792  -53.8110 H   0  0  0  0  0  0  0  0  0  0  0  0
   -0.8312   21.9468  -55.4940 H   0  0  0  0  0  0  0  0  0  0  0  0
   -0.0089   20.3673  -57.0961 H   0  0  0  0  0  0  0  0  0  0  0  0
   -1.1983   22.0442  -58.0438 H   0  0  0  0  0  0  0  0  0  0  0  0
    1.2878   21.5846  -62.2535 H   0  0  0  0  0  0  0  0  0  0  0  0
   -2.4490   22.2091  -60.1930 H   0  0  0  0  0  0  0  0  0  0  0  0
   -1.1822   21.9485  -62.3493 H   0  0  0  0  0  0  0  0  0  0  0  0
  1  2  1  0  0  0  0
  1  3  1  0  0  0  0
  2  4  2  0  0  0  0
  2  5  1  0  0  0  0
  3  6  2  0  0  0  0
  3  7  1  0  0  0  0
  4  8  1  0  0  0  0
  5  9  1  0  0  0  0
  6 10  1  0  0  0  0
  8 11  2  0  0  0  0
  8 12  1  0  0  0  0
  9 13  2  0  0  0  0
 11 14  1  0  0  0  0
 14 15  1  0  0  0  0
 15 16  2  0  0  0  0
 15 17  1  0  0  0  0
 17 18  2  0  0  0  0
 17 19  1  0  0  0  0
 18 20  1  0  0  0  0
 19 21  2  0  0  0  0
 20 22  2  0  0  0  0
  5  6  1  0  0  0  0
  9 11  1  0  0  0  0
 21 22  1  0  0  0  0
  7 23  1  0  0  0  0
  7 24  1  0  0  0  0
  7 25  1  0  0  0  0
 10 26  1  0  0  0  0
 10 27  1  0  0  0  0
 10 28  1  0  0  0  0
 12 29  1  0  0  0  0
 12 30  1  0  0  0  0
 12 31  1  0  0  0  0
 14 32  1  0  0  0  0
 19 33  1  0  0  0  0
 20 34  1  0  0  0  0
 21 35  1  0  0  0  0
 22 36  1  0  0  0  0
M  END
>  <MolID>
HY-Q02179

>  <SMILES>
Cc1c(C)n2c(nc(c(NC(=O)c3ccccn3)c2=O)C)s1

>  <Total Molweight>
314.368

>  <Druglikeness>
2.9511

>  <Mutagenic>
none

>  <Tumorigenic>
none

>  <Reproductive Effective>
none

>  <Irritant>
none

>  <Score>
0.97019

$$$$
HY-Q39539
Actelion Java MolfileCreator 1.0

 33 35  0  0  0  0  0  0  0  0999 V2000
    3.4923   20.1037  -59.7103 I   0  0  0  0  0  0  0  0  0  0  0  0
    1.4985   20.5738  -60.1635 C   0  0  0  0  0  0  0  0  0  0  0  0
    0.5169   21.1411  -59.3934 C   0  0  0  0  0  0  0  0  0  0  0  0
    0.8835   20.3512  -61.4224 C   0  0  0  0  0  0  0  0  0  0  0  0
   -0.6099   21.2737  -60.1960 N   0  0  0  0  0  0  0  0  0  0  0  0
    0.6359   21.5944  -57.9843 C   0  0  0  0  0  0  0  0  0  0  0  0
   -0.3781   20.7531  -61.4273 N   0  0  0  0  0  0  0  0  0  0  0  0
   -1.9186   21.8625  -59.9397 C   0  0  0  0  0  0  0  0  0  0  0  0
   -0.1986   22.3473  -57.4925 O   0  0  0  0  0  0  0  0  0  0  0  0
    1.6238   21.0851  -57.2409 N   0  0  0  0  0  0  0  0  0  0  0  0
    1.7909   21.4171  -55.9465 N   0  0  0  0  0  0  0  0  0  0  0  0
    2.5363   20.6555  -55.2412 C   0  0  0  0  0  0  0  0  0  0  0  0
    2.7100   20.9031  -53.8143 C   0  0  0  0  0  0  0  0  0  0  0  0
    3.2224   19.9409  -52.8940 C   0  0  0  0  0  0  0  0  0  0  0  0
    2.4204   22.0520  -53.1246 C   0  0  0  0  0  0  0  0  0  0  0  0
    3.2082   20.5432  -51.6022 C   0  0  0  0  0  0  0  0  0  0  0  0
    3.7320   18.6292  -53.0002 C   0  0  0  0  0  0  0  0  0  0  0  0
    2.7605   21.8385  -51.7975 N   0  0  0  0  0  0  0  0  0  0  0  0
    3.6222   19.8449  -50.4558 C   0  0  0  0  0  0  0  0  0  0  0  0
    4.1934   17.9480  -51.8629 C   0  0  0  0  0  0  0  0  0  0  0  0
    4.0916   18.5271  -50.5856 C   0  0  0  0  0  0  0  0  0  0  0  0
    1.3028   19.9162  -62.3175 H   0  0  0  0  0  0  0  0  0  0  0  0
   -2.0498   22.7464  -60.5617 H   0  0  0  0  0  0  0  0  0  0  0  0
   -2.7013   21.1475  -60.1648 H   0  0  0  0  0  0  0  0  0  0  0  0
   -2.0600   22.1518  -58.9039 H   0  0  0  0  0  0  0  0  0  0  0  0
    2.2587   20.3966  -57.6182 H   0  0  0  0  0  0  0  0  0  0  0  0
    3.0312   19.7901  -55.6850 H   0  0  0  0  0  0  0  0  0  0  0  0
    2.0250   22.9987  -53.4640 H   0  0  0  0  0  0  0  0  0  0  0  0
    3.7974   18.1537  -53.9673 H   0  0  0  0  0  0  0  0  0  0  0  0
    2.6990   22.5552  -51.0818 H   0  0  0  0  0  0  0  0  0  0  0  0
    3.6123   20.3217  -49.4871 H   0  0  0  0  0  0  0  0  0  0  0  0
    4.6327   16.9739  -51.9886 H   0  0  0  0  0  0  0  0  0  0  0  0
    4.4210   17.9819  -49.7134 H   0  0  0  0  0  0  0  0  0  0  0  0
  1  2  1  0  0  0  0
  2  3  2  0  0  0  0
  2  4  1  0  0  0  0
  3  5  1  0  0  0  0
  3  6  1  0  0  0  0
  4  7  2  0  0  0  0
  5  8  1  0  0  0  0
  6  9  2  0  0  0  0
  6 10  1  0  0  0  0
 10 11  1  0  0  0  0
 11 12  2  0  0  0  0
 12 13  1  0  0  0  0
 13 14  1  0  0  0  0
 13 15  2  0  0  0  0
 14 16  2  0  0  0  0
 14 17  1  0  0  0  0
 15 18  1  0  0  0  0
 16 19  1  0  0  0  0
 17 20  2  0  0  0  0
 19 21  2  0  0  0  0
  5  7  1  0  0  0  0
 16 18  1  0  0  0  0
 20 21  1  0  0  0  0
  4 22  1  0  0  0  0
  8 23  1  0  0  0  0
  8 24  1  0  0  0  0
  8 25  1  0  0  0  0
 10 26  1  0  0  0  0
 12 27  1  0  0  0  0
 15 28  1  0  0  0  0
 17 29  1  0  0  0  0
 18 30  1  0  0  0  0
 19 31  1  0  0  0  0
 20 32  1  0  0  0  0
 21 33  1  0  0  0  0
M  END
>  <MolID>
HY-Q39539

>  <SMILES>
Cn1ncc(c1C(=O)N/N=C/c1c[nH]c2ccccc12)I

>  <Total Molweight>
393.183

>  <Druglikeness>
7.3583

>  <Mutagenic>
none

>  <Tumorigenic>
none

>  <Reproductive Effective>
none

>  <Irritant>
none

>  <Score>
0.9303133

$$$$
HY-Q42415
Actelion Java MolfileCreator 1.0

 28 32  0  0  0  0  0  0  0  0999 V2000
    2.8996   23.4488  -58.4311 S   0  0  0  0  0  0  0  0  0  0  0  0
    2.0126   24.2189  -59.6890 C   0  0  0  0  0  0  0  0  0  0  0  0
    1.7126   22.2590  -58.0721 C   0  0  0  0  0  0  0  0  0  0  0  0
    2.5276   25.2529  -60.3519 N   0  0  0  0  0  0  0  0  0  0  0  0
    0.8156   23.5560  -59.8409 C   0  0  0  0  0  0  0  0  0  0  0  0
    0.6607   22.4580  -58.9200 C   0  0  0  0  0  0  0  0  0  0  0  0
    1.8496   21.2180  -57.0271 C   0  0  0  0  0  0  0  0  0  0  0  0
    1.7855   25.7520  -61.3478 C   0  0  0  0  0  0  0  0  0  0  0  0
    0.0586   24.0921  -60.8638 C   0  0  0  0  0  0  0  0  0  0  0  0
   -0.4764   21.5881  -58.8449 N   0  0  0  0  0  0  0  0  0  0  0  0
    1.6135   20.0231  -57.1820 O   0  0  0  0  0  0  0  0  0  0  0  0
    2.2686   21.7301  -55.8690 N   0  0  0  0  0  0  0  0  0  0  0  0
    0.5565   25.1590  -61.6088 C   0  0  0  0  0  0  0  0  0  0  0  0
    2.2895   26.9130  -62.1948 C   0  0  0  0  0  0  0  0  0  0  0  0
    2.5035   20.9721  -54.6439 C   0  0  0  0  0  0  0  0  0  0  0  0
   -0.2324   25.7101  -62.7857 C   0  0  0  0  0  0  0  0  0  0  0  0
    1.9104   26.7330  -63.6577 C   0  0  0  0  0  0  0  0  0  0  0  0
    2.2705   19.2773  -54.5090 S   0  0  0  0  0  0  0  0  0  0  0  0
    2.9185   21.4252  -53.4840 N   0  0  0  0  0  0  0  0  0  0  0  0
    0.7225   25.8730  -63.8976 N   0  0  0  0  0  4  0  0  0  0  0  0
    2.7314   19.1954  -52.8529 C   0  0  0  0  0  0  0  0  0  0  0  0
    3.0584   20.4773  -52.4680 C   0  0  0  0  0  0  0  0  0  0  0  0
   -0.0215   26.4982  -64.9935 C   0  0  0  0  0  0  0  0  0  0  0  0
    2.7604   18.0344  -52.1009 C   0  0  0  0  0  0  0  0  0  0  0  0
    3.4663   20.5703  -51.1410 C   0  0  0  0  0  0  0  0  0  0  0  0
    0.9424   27.0441  -66.0044 C   0  0  0  0  0  0  0  0  0  0  0  0
    3.1743   18.1914  -50.7899 C   0  0  0  0  0  0  0  0  0  0  0  0
    3.5242   19.4514  -50.3159 C   0  0  0  0  0  0  0  0  0  0  0  0
  1  2  1  0  0  0  0
  1  3  1  0  0  0  0
  2  4  2  0  0  0  0
  2  5  1  0  0  0  0
  3  6  2  0  0  0  0
  3  7  1  0  0  0  0
  4  8  1  0  0  0  0
  5  9  2  0  0  0  0
  6 10  1  0  0  0  0
  7 11  2  0  0  0  0
  7 12  1  0  0  0  0
  8 13  2  0  0  0  0
  8 14  1  0  0  0  0
 12 15  1  0  0  0  0
 13 16  1  0  0  0  0
 14 17  1  0  0  0  0
 15 18  1  0  0  0  0
 15 19  2  0  0  0  0
 16 20  1  0  0  0  0
 18 21  1  0  0  0  0
 19 22  1  0  0  0  0
 20 23  1  0  0  0  0
 21 24  2  0  0  0  0
 22 25  2  0  0  0  0
 23 26  1  0  0  0  0
 24 27  1  0  0  0  0
 25 28  1  0  0  0  0
  5  6  1  0  0  0  0
  9 13  1  0  0  0  0
 17 20  1  0  0  0  0
 21 22  1  0  0  0  0
 27 28  2  0  0  0  0
M  END
>  <MolID>
HY-Q42415

>  <SMILES>
C1Cc2nc3sc(c(c3cc2CN1CC)N)C(=O)Nc1nc2ccccc2s1

>  <Total Molweight>
410.545

>  <Druglikeness>
6.1617

>  <Mutagenic>
none

>  <Tumorigenic>
none

>  <Reproductive Effective>
none

>  <Irritant>
none

>  <Score>
0.9201867

$$$$
HY-Q36978
Actelion Java MolfileCreator 1.0

 44 47  0  0  0  0  0  0  0  0999 V2000
    2.4525   21.7586  -53.8960 O   0  0  0  0  0  0  0  0  0  0  0  0
    2.4888   20.5382  -54.0810 C   0  0  0  0  0  0  0  0  0  0  0  0
    2.3016   19.9754  -55.4395 C   0  0  0  0  0  0  0  0  0  0  0  0
    2.7051   19.5543  -52.9920 C   0  0  0  0  0  0  0  0  0  0  0  0
    2.3557   18.6595  -55.6536 C   0  0  0  0  0  0  0  0  0  0  0  0
    2.0503   20.9319  -56.5474 C   0  0  0  0  0  0  0  0  0  0  0  0
    2.7573   18.1965  -53.3067 C   0  0  0  0  0  0  0  0  0  0  0  0
    2.8757   20.0268  -51.6978 C   0  0  0  0  0  0  0  0  0  0  0  0
    2.1511   18.2454  -56.8768 O   0  0  0  0  0  0  0  0  0  0  0  0
    2.6281   17.7566  -54.6669 N   0  0  0  0  0  0  0  0  0  0  0  0
    2.8679   21.8917  -56.9192 N   0  0  0  0  0  0  0  0  0  0  0  0
    0.9178   20.9445  -57.3418 N   0  0  0  0  0  0  0  0  0  0  0  0
    2.9354   17.2965  -52.2609 C   0  0  0  0  0  0  0  0  0  0  0  0
    3.0805   19.1019  -50.6827 C   0  0  0  0  0  0  0  0  0  0  0  0
    2.8559   16.3442  -55.0498 C   0  0  0  0  0  0  0  0  0  0  0  0
    2.2859   22.5656  -57.9797 C   0  0  0  0  0  0  0  0  0  0  0  0
    1.0713   21.9775  -58.2488 C   0  0  0  0  0  0  0  0  0  0  0  0
    3.1001   17.7404  -50.9538 C   0  0  0  0  0  0  0  0  0  0  0  0
    4.0283   16.2620  -55.9817 C   0  0  0  0  0  0  0  0  0  0  0  0
    2.6513   23.6443  -58.7788 C   0  0  0  0  0  0  0  0  0  0  0  0
    0.2160   22.4052  -59.2580 C   0  0  0  0  0  0  0  0  0  0  0  0
    5.2504   16.7976  -55.2962 C   0  0  0  0  0  0  0  0  0  0  0  0
    1.8223   24.1000  -59.7982 C   0  0  0  0  0  0  0  0  0  0  0  0
    0.5996   23.4852  -60.0462 C   0  0  0  0  0  0  0  0  0  0  0  0
    6.4678   16.1028  -55.8297 C   0  0  0  0  0  0  0  0  0  0  0  0
    2.8497   21.0759  -51.4881 H   0  0  0  0  0  0  0  0  0  0  0  0
    2.7453   18.5597  -57.6172 H   0  0  0  0  0  0  0  0  0  0  0  0
    0.1364   20.3243  -57.2733 H   0  0  0  0  0  0  0  0  0  0  0  0
    2.9457   16.2464  -52.4659 H   0  0  0  0  0  0  0  0  0  0  0  0
    3.2253   19.4428  -49.6787 H   0  0  0  0  0  0  0  0  0  0  0  0
    1.9841   15.9623  -55.5388 H   0  0  0  0  0  0  0  0  0  0  0  0
    3.0558   15.7647  -54.1728 H   0  0  0  0  0  0  0  0  0  0  0  0
    3.2411   17.0362  -50.1605 H   0  0  0  0  0  0  0  0  0  0  0  0
    3.8283   16.8415  -56.8585 H   0  0  0  0  0  0  0  0  0  0  0  0
    4.1929   15.2416  -56.2584 H   0  0  0  0  0  0  0  0  0  0  0  0
    3.5877   24.1324  -58.6057 H   0  0  0  0  0  0  0  0  0  0  0  0
   -0.7194   21.9130  -59.4252 H   0  0  0  0  0  0  0  0  0  0  0  0
    5.1734   16.6243  -54.2432 H   0  0  0  0  0  0  0  0  0  0  0  0
    5.3303   17.8488  -55.4798 H   0  0  0  0  0  0  0  0  0  0  0  0
    2.1281   24.9317  -60.3978 H   0  0  0  0  0  0  0  0  0  0  0  0
   -0.0363   23.8377  -60.8311 H   0  0  0  0  0  0  0  0  0  0  0  0
    6.3878   15.0517  -55.6462 H   0  0  0  0  0  0  0  0  0  0  0  0
    7.3395   16.4849  -55.3407 H   0  0  0  0  0  0  0  0  0  0  0  0
    6.5447   16.2762  -56.8827 H   0  0  0  0  0  0  0  0  0  0  0  0
  1  2  2  0  0  0  0
  2  3  1  0  0  0  0
  2  4  1  0  0  0  0
  3  5  2  0  0  0  0
  3  6  1  0  0  0  0
  4  7  2  0  0  0  0
  4  8  1  0  0  0  0
  5  9  1  0  0  0  0
  5 10  1  0  0  0  0
  6 11  2  0  0  0  0
  6 12  1  0  0  0  0
  7 13  1  0  0  0  0
  8 14  2  0  0  0  0
 10 15  1  0  0  0  0
 11 16  1  0  0  0  0
 12 17  1  0  0  0  0
 13 18  2  0  0  0  0
 15 19  1  0  0  0  0
 16 20  2  0  0  0  0
 17 21  2  0  0  0  0
 19 22  1  0  0  0  0
 20 23  1  0  0  0  0
 21 24  1  0  0  0  0
 22 25  1  0  0  0  0
  7 10  1  0  0  0  0
 14 18  1  0  0  0  0
 16 17  1  0  0  0  0
 23 24  2  0  0  0  0
  8 26  1  0  0  0  0
  9 27  1  0  0  0  0
 12 28  1  0  0  0  0
 13 29  1  0  0  0  0
 14 30  1  0  0  0  0
 15 31  1  0  0  0  0
 15 32  1  0  0  0  0
 18 33  1  0  0  0  0
 19 34  1  0  0  0  0
 19 35  1  0  0  0  0
 20 36  1  0  0  0  0
 21 37  1  0  0  0  0
 22 38  1  0  0  0  0
 22 39  1  0  0  0  0
 23 40  1  0  0  0  0
 24 41  1  0  0  0  0
 25 42  1  0  0  0  0
 25 43  1  0  0  0  0
 25 44  1  0  0  0  0
M  END
>  <MolID>
HY-Q36978

>  <SMILES>
CCCCn1c(O)c(c(=O)c2ccccc12)c1[nH]c2ccccc2n1

>  <Total Molweight>
333.39

>  <Druglikeness>
2.0931

>  <Mutagenic>
none

>  <Tumorigenic>
none

>  <Reproductive Effective>
none

>  <Irritant>
none

>  <Score>
0.9074434

$$$$
HY-136922
Actelion Java MolfileCreator 1.0

 32 36  0  0  0  0  0  0  0  0999 V2000
    1.8766   18.5132  -55.6948 O   0  0  0  0  0  0  0  0  0  0  0  0
    2.2606   18.8673  -54.5758 C   0  0  0  0  0  0  0  0  0  0  0  0
    2.6345   17.8843  -53.7577 N   0  0  0  0  0  0  0  0  0  0  0  0
    2.2605   20.3493  -54.1827 C   0  0  0  0  0  0  0  0  0  0  0  0
    3.0465   18.1353  -52.3637 C   0  0  0  0  0  0  0  0  0  0  0  0
    2.6405   16.4874  -54.2177 C   0  0  0  0  0  0  0  0  0  0  0  0
    3.3605   21.1863  -54.8217 C   0  0  0  0  0  0  0  0  0  0  0  0
    0.9575   21.0773  -54.5077 C   0  0  0  0  0  0  0  0  0  0  0  0
    2.3425   20.4373  -52.6687 C   0  0  0  0  0  0  0  0  0  0  0  0
    3.4684   19.5744  -52.1256 C   0  0  0  0  0  0  0  0  0  0  0  0
    3.7804   16.2804  -55.1686 C   0  0  0  0  0  0  0  0  0  0  0  0
    3.2465   21.3124  -56.3356 C   0  0  0  0  0  0  0  0  0  0  0  0
    0.6715   21.2223  -55.9976 C   0  0  0  0  0  0  0  0  0  0  0  0
    5.1733   16.3655  -54.8326 C   0  0  0  0  0  0  0  0  0  0  0  0
    3.6514   15.9795  -56.4926 C   0  0  0  0  0  0  0  0  0  0  0  0
    1.8694   21.6614  -56.7256 N   0  0  0  0  0  0  0  0  0  0  0  0
    5.8393   16.1105  -56.0075 C   0  0  0  0  0  0  0  0  0  0  0  0
    5.8303   16.6465  -53.6416 C   0  0  0  0  0  0  0  0  0  0  0  0
    4.9253   15.8695  -57.0225 N   0  0  0  0  0  0  0  0  0  0  0  0
    1.6945   22.5124  -57.8655 C   0  0  0  0  0  0  0  0  0  0  0  0
    7.2312   16.1336  -55.9945 C   0  0  0  0  0  0  0  0  0  0  0  0
    7.2182   16.6666  -53.6585 C   0  0  0  0  0  0  0  0  0  0  0  0
    0.6043   22.4244  -58.6476 N   0  0  0  0  0  0  0  0  0  0  0  0
    2.6314   23.4244  -58.1785 N   0  0  0  0  0  0  0  0  0  0  0  0
    7.9292   16.4116  -54.8255 C   0  0  0  0  0  0  0  0  0  0  0  0
    7.8861   16.9486  -52.4795 O   0  0  0  0  0  0  0  0  0  0  0  0
    0.4083   23.2025  -59.7265 C   0  0  0  0  0  0  0  0  0  0  0  0
    2.5213   24.2475  -59.2354 C   0  0  0  0  0  0  0  0  0  0  0  0
    7.0771   17.0777  -51.3685 C   0  0  0  0  0  0  0  0  0  0  0  0
    1.3883   24.1405  -60.0334 C   0  0  0  0  0  0  0  0  0  0  0  0
   -0.8307   23.0965  -60.6063 C   0  0  0  0  0  0  0  0  0  0  0  0
    3.5783   25.2855  -59.5974 C   0  0  0  0  0  0  0  0  0  0  0  0
  1  2  2  0  0  0  0
  2  3  1  0  0  0  0
  2  4  1  0  0  0  0
  3  5  1  0  0  0  0
  3  6  1  0  0  0  0
  4  7  1  0  0  0  0
  4  8  1  0  0  0  0
  4  9  1  0  0  0  0
  5 10  1  0  0  0  0
  6 11  1  0  0  0  0
  7 12  1  0  0  0  0
  8 13  1  0  0  0  0
 11 14  1  0  0  0  0
 11 15  2  0  0  0  0
 12 16  1  0  0  0  0
 14 17  2  0  0  0  0
 14 18  1  0  0  0  0
 15 19  1  0  0  0  0
 16 20  1  0  0  0  0
 17 21  1  0  0  0  0
 18 22  2  0  0  0  0
 20 23  2  0  0  0  0
 20 24  1  0  0  0  0
 21 25  2  0  0  0  0
 22 26  1  0  0  0  0
 23 27  1  0  0  0  0
 24 28  2  0  0  0  0
 26 29  1  0  0  0  0
 27 30  2  0  0  0  0
 27 31  1  0  0  0  0
 28 32  1  0  0  0  0
  9 10  1  0  0  0  0
 13 16  1  0  0  0  0
 17 19  1  0  0  0  0
 22 25  1  0  0  0  0
 28 30  1  0  0  0  0
M  END
>  <MolID>
HY-136922

>  <SMILES>
O=C1N(CCC[C@]21CCN(c1nc(C)cc(C)n1)CC2)Cc1c[nH]c2c1cc(cc2)OC

>  <Total Molweight>
433.554

>  <Druglikeness>
7.538

>  <Mutagenic>
none

>  <Tumorigenic>
none

>  <Reproductive Effective>
none

>  <Irritant>
none

>  <Score>
0.9053433

$$$$
HY-Q22125
Actelion Java MolfileCreator 1.0

 48 50  0  0  0  0  0  0  0  0999 V2000
    2.0374   17.9772  -56.2509 O   0  0  0  0  0  0  0  0  0  0  0  0
    2.1861   18.6243  -55.2081 C   0  0  0  0  0  0  0  0  0  0  0  0
    2.6785   18.0235  -54.0532 N   0  0  0  0  0  0  0  0  0  0  0  0
    1.8535   19.9755  -55.1983 N   0  0  0  0  0  0  0  0  0  0  0  0
    2.8468   18.7523  -52.8765 C   0  0  0  0  0  0  0  0  0  0  0  0
    3.0136   16.5924  -54.1190 C   0  0  0  0  0  0  0  0  0  0  0  0
    2.0042   20.7402  -54.0481 C   0  0  0  0  0  0  0  0  0  0  0  0
    1.3364   20.6087  -56.4079 C   0  0  0  0  0  0  0  0  0  0  0  0
    3.3229   18.1860  -51.7529 N   0  0  0  0  0  0  0  0  0  0  0  0
    2.5156   20.1059  -52.8588 C   0  0  0  0  0  0  0  0  0  0  0  0
    4.4463   16.4330  -54.5337 C   0  0  0  0  0  0  0  0  0  0  0  0
    1.6957   21.9380  -54.0808 O   0  0  0  0  0  0  0  0  0  0  0  0
    2.3519   20.4935  -57.5058 C   0  0  0  0  0  0  0  0  0  0  0  0
    3.4950   18.8674  -50.6101 C   0  0  0  0  0  0  0  0  0  0  0  0
    2.6855   20.8359  -51.6867 C   0  0  0  0  0  0  0  0  0  0  0  0
    5.4502   16.9860  -53.7447 C   0  0  0  0  0  0  0  0  0  0  0  0
    4.7596   15.7378  -55.6970 C   0  0  0  0  0  0  0  0  0  0  0  0
    3.2620   21.6852  -57.4722 C   0  0  0  0  0  0  0  0  0  0  0  0
    3.1780   20.2192  -50.5451 C   0  0  0  0  0  0  0  0  0  0  0  0
    6.7831   16.8455  -54.1164 C   0  0  0  0  0  0  0  0  0  0  0  0
    6.0921   15.5961  -56.0715 C   0  0  0  0  0  0  0  0  0  0  0  0
    2.6956   22.7716  -58.3376 C   0  0  0  0  0  0  0  0  0  0  0  0
    3.3837   22.1820  -56.0620 C   0  0  0  0  0  0  0  0  0  0  0  0
    7.0932   16.1496  -55.2801 C   0  0  0  0  0  0  0  0  0  0  0  0
    8.5455   15.9900  -55.6987 C   0  0  0  0  0  0  0  0  0  0  0  0
    2.8693   16.1476  -53.1566 H   0  0  0  0  0  0  0  0  0  0  0  0
    2.3798   16.1101  -54.8335 H   0  0  0  0  0  0  0  0  0  0  0  0
    1.1379   21.6420  -56.2127 H   0  0  0  0  0  0  0  0  0  0  0  0
    0.4315   20.1220  -56.7062 H   0  0  0  0  0  0  0  0  0  0  0  0
    1.8519   20.4530  -58.4509 H   0  0  0  0  0  0  0  0  0  0  0  0
    2.9266   19.6017  -57.3677 H   0  0  0  0  0  0  0  0  0  0  0  0
    3.8780   18.3679  -49.7448 H   0  0  0  0  0  0  0  0  0  0  0  0
    2.4354   21.8762  -51.6651 H   0  0  0  0  0  0  0  0  0  0  0  0
    5.1969   17.5191  -52.8523 H   0  0  0  0  0  0  0  0  0  0  0  0
    3.9823   15.3154  -56.2988 H   0  0  0  0  0  0  0  0  0  0  0  0
    4.2285   21.4062  -57.8367 H   0  0  0  0  0  0  0  0  0  0  0  0
    3.3106   20.7704  -49.6376 H   0  0  0  0  0  0  0  0  0  0  0  0
    7.5603   17.2677  -53.5144 H   0  0  0  0  0  0  0  0  0  0  0  0
    6.3454   15.0639  -56.9645 H   0  0  0  0  0  0  0  0  0  0  0  0
    2.6088   22.4175  -59.3435 H   0  0  0  0  0  0  0  0  0  0  0  0
    3.3450   23.6217  -58.3137 H   0  0  0  0  0  0  0  0  0  0  0  0
    1.7291   23.0508  -57.9730 H   0  0  0  0  0  0  0  0  0  0  0  0
    2.4172   22.4610  -55.6973 H   0  0  0  0  0  0  0  0  0  0  0  0
    4.0330   23.0321  -56.0381 H   0  0  0  0  0  0  0  0  0  0  0  0
    3.7876   21.4072  -55.4445 H   0  0  0  0  0  0  0  0  0  0  0  0
    9.0825   15.4705  -54.9327 H   0  0  0  0  0  0  0  0  0  0  0  0
    8.5948   15.4319  -56.6101 H   0  0  0  0  0  0  0  0  0  0  0  0
    8.9819   16.9557  -55.8476 H   0  0  0  0  0  0  0  0  0  0  0  0
  1  2  2  0  0  0  0
  2  3  1  0  0  0  0
  2  4  1  0  0  0  0
  3  5  1  0  0  0  0
  3  6  1  0  0  0  0
  4  7  1  0  0  0  0
  4  8  1  0  0  0  0
  5  9  2  0  0  0  0
  5 10  1  0  0  0  0
  6 11  1  0  0  0  0
  7 12  2  0  0  0  0
  8 13  1  0  0  0  0
  9 14  1  0  0  0  0
 10 15  2  0  0  0  0
 11 16  2  0  0  0  0
 11 17  1  0  0  0  0
 13 18  1  0  0  0  0
 14 19  2  0  0  0  0
 16 20  1  0  0  0  0
 17 21  2  0  0  0  0
 18 22  1  0  0  0  0
 18 23  1  0  0  0  0
 20 24  2  0  0  0  0
 24 25  1  0  0  0  0
  7 10  1  0  0  0  0
 15 19  1  0  0  0  0
 21 24  1  0  0  0  0
  6 26  1  0  0  0  0
  6 27  1  0  0  0  0
  8 28  1  0  0  0  0
  8 29  1  0  0  0  0
 13 30  1  0  0  0  0
 13 31  1  0  0  0  0
 14 32  1  0  0  0  0
 15 33  1  0  0  0  0
 16 34  1  0  0  0  0
 17 35  1  0  0  0  0
 18 36  1  0  0  0  0
 19 37  1  0  0  0  0
 20 38  1  0  0  0  0
 21 39  1  0  0  0  0
 22 40  1  0  0  0  0
 22 41  1  0  0  0  0
 22 42  1  0  0  0  0
 23 43  1  0  0  0  0
 23 44  1  0  0  0  0
 23 45  1  0  0  0  0
 25 46  1  0  0  0  0
 25 47  1  0  0  0  0
 25 48  1  0  0  0  0
M  END
>  <MolID>
HY-Q22125

>  <SMILES>
CC(C)CCn1c(=O)n(Cc2ccc(cc2)C)c2c(cccn2)c1=O

>  <Total Molweight>
337.422

>  <Druglikeness>
2.8879

>  <Mutagenic>
none

>  <Tumorigenic>
none

>  <Reproductive Effective>
none

>  <Irritant>
none

>  <Score>
0.9029067

$$$$
HY-Q48203
Actelion Java MolfileCreator 1.0

 22 24  0  0  0  0  0  0  0  0999 V2000
    6.5642   17.2370  -51.4884 Cl  0  0  0  0  0  0  0  0  0  0  0  0
    4.9001   17.8691  -51.5263 C   0  0  0  0  0  0  0  0  0  0  0  0
    4.3291   18.2051  -52.7493 C   0  0  0  0  0  0  0  0  0  0  0  0
    4.1931   18.0221  -50.3382 C   0  0  0  0  0  0  0  0  0  0  0  0
    3.0290   18.6992  -52.7712 C   0  0  0  0  0  0  0  0  0  0  0  0
    2.8940   18.5182  -50.3842 C   0  0  0  0  0  0  0  0  0  0  0  0
    2.4270   19.0503  -54.0272 N   0  0  0  0  0  0  0  0  0  0  0  0
    2.3019   18.8602  -51.5962 C   0  0  0  0  0  0  0  0  0  0  0  0
    1.6949   20.1663  -54.2802 N   0  0  0  0  0  0  0  0  0  0  0  0
    2.4899   18.3123  -55.1891 C   0  0  0  0  0  0  0  0  0  0  0  0
    1.3339   20.1034  -55.5381 C   0  0  0  0  0  0  0  0  0  0  0  0
    1.8220   18.9482  -56.1221 N   0  0  0  0  0  0  0  0  0  0  0  0
    3.2120   16.9862  -55.3660 C   0  0  0  0  0  0  0  0  0  0  0  0
    0.5139   21.1254  -56.2371 C   0  0  0  0  0  0  0  0  0  0  0  0
   -0.3662   21.8055  -55.7170 O   0  0  0  0  0  0  0  0  0  0  0  0
    0.8459   21.2315  -57.5240 N   0  0  0  0  0  0  0  0  0  0  0  0
    0.2328   22.1445  -58.4850 C   0  0  0  0  0  0  0  0  0  0  0  0
    1.2478   23.1815  -58.9390 C   0  0  0  0  0  0  0  0  0  0  0  0
   -0.2752   21.3695  -59.6900 C   0  0  0  0  0  0  0  0  0  0  0  0
    0.6167   24.1366  -59.9399 C   0  0  0  0  0  0  0  0  0  0  0  0
   -0.9143   22.3125  -60.6950 C   0  0  0  0  0  0  0  0  0  0  0  0
    0.1046   23.3497  -61.1359 C   0  0  0  0  0  0  0  0  0  0  0  0
  1  2  1  0  0  0  0
  2  3  2  0  0  0  0
  2  4  1  0  0  0  0
  3  5  1  0  0  0  0
  4  6  2  0  0  0  0
  5  7  1  0  0  0  0
  5  8  2  0  0  0  0
  7  9  1  0  0  0  0
  7 10  1  0  0  0  0
  9 11  2  0  0  0  0
 10 12  2  0  0  0  0
 10 13  1  0  0  0  0
 11 14  1  0  0  0  0
 14 15  2  0  0  0  0
 14 16  1  0  0  0  0
 16 17  1  0  0  0  0
 17 18  1  0  0  0  0
 17 19  1  0  0  0  0
 18 20  1  0  0  0  0
 19 21  1  0  0  0  0
 20 22  1  0  0  0  0
  6  8  1  0  0  0  0
 11 12  1  0  0  0  0
 21 22  1  0  0  0  0
M  END
>  <MolID>
HY-Q48203

>  <SMILES>
Cc1nc(nn1c1cccc(c1)Cl)C(=O)NC1CCCCC1

>  <Total Molweight>
318.807

>  <Druglikeness>
0.5997

>  <Mutagenic>
none

>  <Tumorigenic>
none

>  <Reproductive Effective>
none

>  <Irritant>
none

>  <Score>
0.8885767

$$$$
HY-Q50790
Actelion Java MolfileCreator 1.0

 45 47  0  0  0  0  0  0  0  0999 V2000
    1.6315   24.7661  -61.3801 S   0  0  0  0  0  0  0  0  0  0  0  0
    1.5742   23.7735  -60.0414 C   0  0  0  0  0  0  0  0  0  0  0  0
    3.0188   23.2800  -59.1875 S   0  0  0  0  0  0  0  0  0  0  0  0
    0.4827   23.2048  -59.4473 N   0  0  0  0  0  0  0  0  0  0  0  0
    2.0529   22.3885  -58.0395 C   0  0  0  0  0  0  0  0  0  0  0  0
    0.7346   22.4632  -58.2882 C   0  0  0  0  0  0  0  0  0  0  0  0
   -0.8508   23.1931  -60.0622 C   0  0  0  0  0  0  0  0  0  0  0  0
    2.8113   21.7298  -56.9772 C   0  0  0  0  0  0  0  0  0  0  0  0
   -0.3028   21.9224  -57.5478 N   0  0  0  0  0  0  0  0  0  0  0  0
   -0.9657   22.0227  -61.0557 C   0  0  0  0  0  0  0  0  0  0  0  0
    4.0240   21.5233  -57.0072 O   0  0  0  0  0  0  0  0  0  0  0  0
    2.0505   21.3530  -55.9391 N   0  0  0  0  0  0  0  0  0  0  0  0
    2.5145   20.7821  -54.8017 C   0  0  0  0  0  0  0  0  0  0  0  0
    2.5883   21.7222  -53.3367 S   0  0  0  0  0  0  0  0  0  0  0  0
    2.9523   19.4867  -54.5888 C   0  0  0  0  0  0  0  0  0  0  0  0
    3.2172   20.3701  -52.4471 C   0  0  0  0  0  0  0  0  0  0  0  0
    3.3110   19.2431  -53.2168 C   0  0  0  0  0  0  0  0  0  0  0  0
    2.9585   18.4519  -55.6682 C   0  0  0  0  0  0  0  0  0  0  0  0
    3.5409   20.4692  -50.9971 C   0  0  0  0  0  0  0  0  0  0  0  0
    3.6612   17.9248  -52.5771 C   0  0  0  0  0  0  0  0  0  0  0  0
    2.0236   18.3226  -56.4562 O   0  0  0  0  0  0  0  0  0  0  0  0
    4.0742   17.7142  -55.7414 N   0  0  0  0  0  0  0  0  0  0  0  0
    3.5658   19.1007  -50.3094 C   0  0  0  0  0  0  0  0  0  0  0  0
    4.3071   18.0781  -51.1823 C   0  0  0  0  0  0  0  0  0  0  0  0
    4.2927   16.6504  -56.7119 C   0  0  0  0  0  0  0  0  0  0  0  0
   -1.0667   24.1514  -60.5313 H   0  0  0  0  0  0  0  0  0  0  0  0
   -1.6262   23.0867  -59.3078 H   0  0  0  0  0  0  0  0  0  0  0  0
   -0.2280   20.9339  -57.3228 H   0  0  0  0  0  0  0  0  0  0  0  0
   -1.2298   22.1138  -57.8993 H   0  0  0  0  0  0  0  0  0  0  0  0
   -0.7055   21.0758  -60.5810 H   0  0  0  0  0  0  0  0  0  0  0  0
   -0.3040   22.1614  -61.9115 H   0  0  0  0  0  0  0  0  0  0  0  0
   -1.9767   21.9232  -61.4426 H   0  0  0  0  0  0  0  0  0  0  0  0
    1.0755   21.6198  -55.9734 H   0  0  0  0  0  0  0  0  0  0  0  0
    2.8240   21.1196  -50.5296 H   0  0  0  0  0  0  0  0  0  0  0  0
    4.4973   20.9623  -50.8590 H   0  0  0  0  0  0  0  0  0  0  0  0
    4.3096   17.3144  -53.2025 H   0  0  0  0  0  0  0  0  0  0  0  0
    2.7229   17.3859  -52.4692 H   0  0  0  0  0  0  0  0  0  0  0  0
    4.8169   17.9131  -55.0879 H   0  0  0  0  0  0  0  0  0  0  0  0
    2.5438   18.7539  -50.1534 H   0  0  0  0  0  0  0  0  0  0  0  0
    4.0221   19.1786  -49.3214 H   0  0  0  0  0  0  0  0  0  0  0  0
    4.3507   17.1234  -50.6646 H   0  0  0  0  0  0  0  0  0  0  0  0
    5.3398   18.4067  -51.3053 H   0  0  0  0  0  0  0  0  0  0  0  0
    5.3173   16.2866  -56.6450 H   0  0  0  0  0  0  0  0  0  0  0  0
    3.6234   15.8101  -56.5241 H   0  0  0  0  0  0  0  0  0  0  0  0
    4.1225   17.0046  -57.7299 H   0  0  0  0  0  0  0  0  0  0  0  0
  1  2  2  0  0  0  0
  2  3  1  0  0  0  0
  2  4  1  0  0  0  0
  3  5  1  0  0  0  0
  4  6  1  0  0  0  0
  4  7  1  0  0  0  0
  5  8  1  0  0  0  0
  6  9  1  0  0  0  0
  7 10  1  0  0  0  0
  8 11  2  0  0  0  0
  8 12  1  0  0  0  0
 12 13  1  0  0  0  0
 13 14  1  0  0  0  0
 13 15  2  0  0  0  0
 14 16  1  0  0  0  0
 15 17  1  0  0  0  0
 15 18  1  0  0  0  0
 16 19  1  0  0  0  0
 17 20  1  0  0  0  0
 18 21  2  0  0  0  0
 18 22  1  0  0  0  0
 19 23  1  0  0  0  0
 20 24  1  0  0  0  0
 22 25  1  0  0  0  0
  5  6  2  0  0  0  0
 16 17  2  0  0  0  0
 23 24  1  0  0  0  0
  7 26  1  0  0  0  0
  7 27  1  0  0  0  0
  9 28  1  0  0  0  0
  9 29  1  0  0  0  0
 10 30  1  0  0  0  0
 10 31  1  0  0  0  0
 10 32  1  0  0  0  0
 12 33  1  0  0  0  0
 19 34  1  0  0  0  0
 19 35  1  0  0  0  0
 20 36  1  0  0  0  0
 20 37  1  0  0  0  0
 22 38  1  0  0  0  0
 23 39  1  0  0  0  0
 23 40  1  0  0  0  0
 24 41  1  0  0  0  0
 24 42  1  0  0  0  0
 25 43  1  0  0  0  0
 25 44  1  0  0  0  0
 25 45  1  0  0  0  0
M  END
>  <MolID>
HY-Q50790

>  <SMILES>
CCn1c(c(sc1=S)C(=O)Nc1sc2c(c1C(=O)NC)CCCC2)N

>  <Total Molweight>
396.559

>  <Druglikeness>
0.73808

>  <Mutagenic>
none

>  <Tumorigenic>
none

>  <Reproductive Effective>
none

>  <Irritant>
none

>  <Score>
0.8845233

$$$$
HY-Q34352
Actelion Java MolfileCreator 1.0

 28 30  0  0  0  0  0  0  0  0999 V2000
    3.0953   18.8469  -51.1596 Br  0  0  0  0  0  0  0  0  0  0  0  0
    2.4365   19.3925  -52.8645 C   0  0  0  0  0  0  0  0  0  0  0  0
    2.6958   18.6436  -54.0380 C   0  0  0  0  0  0  0  0  0  0  0  0
    1.6603   20.5619  -52.9357 C   0  0  0  0  0  0  0  0  0  0  0  0
    2.1692   19.0618  -55.2951 C   0  0  0  0  0  0  0  0  0  0  0  0
    3.4728   17.4638  -53.9933 C   0  0  0  0  0  0  0  0  0  0  0  0
    1.1385   20.9897  -54.1673 C   0  0  0  0  0  0  0  0  0  0  0  0
    2.3820   18.3392  -56.4236 N   0  0  0  0  0  0  0  0  0  0  0  0
    1.3908   20.2477  -55.3400 C   0  0  0  0  0  0  0  0  0  0  0  0
    3.6875   16.7348  -55.1750 C   0  0  0  0  0  0  0  0  0  0  0  0
    3.1280   17.2181  -56.3681 C   0  0  0  0  0  0  0  0  0  0  0  0
    0.8139   20.6882  -56.5590 N   0  0  0  0  0  0  0  0  0  0  0  0
    1.3470   21.6239  -57.3597 C   0  0  0  0  0  0  0  0  0  0  0  0
    2.4153   22.1869  -57.1170 O   0  0  0  0  0  0  0  0  0  0  0  0
    0.5674   21.9444  -58.5743 C   0  0  0  0  0  0  0  0  0  0  0  0
    1.4417   22.6088  -59.9335 S   0  0  0  0  0  0  0  0  0  0  0  0
   -0.7783   21.8845  -58.8408 C   0  0  0  0  0  0  0  0  0  0  0  0
   -0.0194   22.7101  -60.8813 C   0  0  0  0  0  0  0  0  0  0  0  0
   -1.1117   22.2996  -60.1632 C   0  0  0  0  0  0  0  0  0  0  0  0
    1.4586   21.1300  -52.0401 H   0  0  0  0  0  0  0  0  0  0  0  0
    3.9029   17.0963  -53.0725 H   0  0  0  0  0  0  0  0  0  0  0  0
    0.5344   21.8833  -54.1981 H   0  0  0  0  0  0  0  0  0  0  0  0
    4.2730   15.8257  -55.1725 H   0  0  0  0  0  0  0  0  0  0  0  0
    3.2663   16.6853  -57.2984 H   0  0  0  0  0  0  0  0  0  0  0  0
    0.0037   20.1799  -56.9076 H   0  0  0  0  0  0  0  0  0  0  0  0
   -1.5300   21.5379  -58.1466 H   0  0  0  0  0  0  0  0  0  0  0  0
    0.0094   23.0757  -61.9004 H   0  0  0  0  0  0  0  0  0  0  0  0
   -2.1267   22.2939  -60.5336 H   0  0  0  0  0  0  0  0  0  0  0  0
  1  2  1  0  0  0  0
  2  3  1  0  0  0  0
  2  4  2  0  0  0  0
  3  5  2  0  0  0  0
  3  6  1  0  0  0  0
  4  7  1  0  0  0  0
  5  8  1  0  0  0  0
  5  9  1  0  0  0  0
  6 10  2  0  0  0  0
  8 11  2  0  0  0  0
  9 12  1  0  0  0  0
 12 13  1  0  0  0  0
 13 14  2  0  0  0  0
 13 15  1  0  0  0  0
 15 16  1  0  0  0  0
 15 17  2  0  0  0  0
 16 18  1  0  0  0  0
 17 19  1  0  0  0  0
  7  9  2  0  0  0  0
 10 11  1  0  0  0  0
 18 19  2  0  0  0  0
  4 20  1  0  0  0  0
  6 21  1  0  0  0  0
  7 22  1  0  0  0  0
 10 23  1  0  0  0  0
 11 24  1  0  0  0  0
 12 25  1  0  0  0  0
 17 26  1  0  0  0  0
 18 27  1  0  0  0  0
 19 28  1  0  0  0  0
M  END
>  <MolID>
HY-Q34352

>  <SMILES>
Brc1ccc(c2c1cccn2)NC(=O)c1cccs1

>  <Total Molweight>
333.208

>  <Druglikeness>
1.4928

>  <Mutagenic>
none

>  <Tumorigenic>
none

>  <Reproductive Effective>
none

>  <Irritant>
none

>  <Score>
0.8752066

$$$$
HY-Q15582
Actelion Java MolfileCreator 1.0

 25 28  0  0  1  0  0  0  0  0999 V2000
    2.1345   18.2432  -55.1473 O   0  0  0  0  0  0  0  0  0  0  0  0
    3.3105   18.3833  -54.8283 C   0  0  0  0  0  0  0  0  0  0  0  0
    4.3465   17.5924  -55.2582 N   0  0  0  0  0  0  0  0  0  0  0  0
    3.7295   19.3444  -54.0053 N   0  0  0  0  0  0  0  0  0  0  0  0
    4.2195   16.4523  -56.1683 C   0  0  0  0  0  0  0  0  0  0  0  0
    5.7596   17.7544  -54.8583 C   0  0  0  0  0  0  0  0  0  0  0  0
    2.8794   20.3505  -53.3742 C   0  0  0  0  0  0  0  0  0  0  0  0
    5.6074   15.8683  -56.3743 C   0  0  0  0  0  0  0  0  0  0  0  0
    6.5446   16.5794  -55.4231 C   0  0  0  0  0  0  0  0  0  0  0  0
    2.8604   21.6546  -53.8572 C   0  0  0  0  0  0  0  0  0  0  0  0
    2.0923   19.9885  -52.2860 C   0  0  0  0  0  0  0  0  0  0  0  0
    6.1024   16.2293  -57.7574 C   0  0  0  0  0  0  0  0  0  0  0  0
    7.7336   17.0284  -56.2482 C   0  0  0  0  0  0  0  0  0  0  0  0
    2.0493   22.6107  -53.2531 C   0  0  0  0  0  0  0  0  0  0  0  0
    3.7244   22.0397  -55.0472 C   0  0  0  0  0  0  0  0  0  0  0  0
    1.2822   20.9436  -51.6819 C   0  0  0  0  0  0  0  0  0  0  0  0
    7.5395   16.4124  -57.5613 N   0  0  0  0  0  0  0  0  0  0  0  0
    1.2631   22.2467  -52.1650 C   0  0  0  0  0  0  0  0  0  0  0  0
    8.5765   16.0535  -58.4882 C   0  0  0  0  0  0  0  0  0  0  0  0
    9.0204   16.9096  -59.4233 N   0  0  0  0  0  0  0  0  0  0  0  0
    9.1125   14.8264  -58.4143 N   0  0  0  0  0  0  0  0  0  0  0  0
    9.9894   16.5826  -60.2962 C   0  0  0  0  0  0  0  0  0  0  0  0
   10.0815   14.4373  -59.2543 C   0  0  0  0  0  0  0  0  0  0  0  0
   10.5504   15.3136  -60.2262 C   0  0  0  0  0  0  0  0  0  0  0  0
   10.4943   17.5497  -61.3583 C   0  0  0  0  0  0  0  0  0  0  0  0
  1  2  2  0  0  0  0
  2  3  1  0  0  0  0
  2  4  1  0  0  0  0
  3  5  1  0  0  0  0
  3  6  1  0  0  0  0
  4  7  1  0  0  0  0
  5  8  1  0  0  0  0
  6  9  1  0  0  0  0
  7 10  2  0  0  0  0
  7 11  1  0  0  0  0
  8 12  1  0  0  0  0
  9 13  1  0  0  0  0
 10 14  1  0  0  0  0
 10 15  1  0  0  0  0
 11 16  2  0  0  0  0
 12 17  1  0  0  0  0
 14 18  2  0  0  0  0
 17 19  1  0  0  0  0
 19 20  2  0  0  0  0
 19 21  1  0  0  0  0
 20 22  1  0  0  0  0
 21 23  2  0  0  0  0
 22 24  2  0  0  0  0
 22 25  1  0  0  0  0
  8  9  1  0  0  0  0
 13 17  1  0  0  0  0
 16 18  1  0  0  0  0
 23 24  1  0  0  0  0
M  END
>  <MolID>
HY-Q15582

>  <SMILES>
Cc1ccnc(n1)N1C[C@@H]2CN(C[C@@H]2C1)C(=O)Nc1ccccc1C

>  <Total Molweight>
337.426

>  <Druglikeness>
4.0238

>  <Mutagenic>
none

>  <Tumorigenic>
none

>  <Reproductive Effective>
low

>  <Irritant>
none

>  <Score>
0.8647667

$$$$
HY-Q22629
Actelion Java MolfileCreator 1.0

 42 45  0  0  0  0  0  0  0  0999 V2000
    0.2403   21.2341  -58.6253 S   0  0  0  0  0  0  0  0  0  0  0  0
    1.8129   21.3814  -57.9529 C   0  0  0  0  0  0  0  0  0  0  0  0
    0.6501   22.0558  -60.0749 C   0  0  0  0  0  0  0  0  0  0  0  0
    2.5875   22.0154  -58.8089 N   0  0  0  0  0  0  0  0  0  0  0  0
    2.1265   20.8437  -56.6325 N   0  0  0  0  0  0  0  0  0  0  0  0
    1.9551   22.4120  -59.9769 C   0  0  0  0  0  0  0  0  0  0  0  0
   -0.3621   22.2405  -61.1866 C   0  0  0  0  0  0  0  0  0  0  0  0
    2.0261   19.5635  -56.2740 C   0  0  0  0  0  0  0  0  0  0  0  0
    2.4304   23.2026  -61.1837 C   0  0  0  0  0  0  0  0  0  0  0  0
    0.1326   23.3118  -62.0668 N   0  0  0  0  0  0  0  0  0  0  0  0
    1.6486   18.6838  -57.0421 O   0  0  0  0  0  0  0  0  0  0  0  0
    2.4264   19.3517  -54.8440 C   0  0  0  0  0  0  0  0  0  0  0  0
    1.5396   23.0385  -62.4043 C   0  0  0  0  0  0  0  0  0  0  0  0
   -0.0693   24.6644  -61.5176 C   0  0  0  0  0  0  0  0  0  0  0  0
    3.4178   18.5680  -54.4246 O   0  0  0  0  0  0  0  0  0  0  0  0
    1.8341   19.9294  -53.7626 C   0  0  0  0  0  0  0  0  0  0  0  0
    3.5158   18.5966  -53.0884 C   0  0  0  0  0  0  0  0  0  0  0  0
    2.5410   19.4413  -52.6179 C   0  0  0  0  0  0  0  0  0  0  0  0
    4.3379   17.9925  -52.1369 C   0  0  0  0  0  0  0  0  0  0  0  0
    2.3509   19.7114  -51.2679 C   0  0  0  0  0  0  0  0  0  0  0  0
    5.3521   17.1208  -52.5034 O   0  0  0  0  0  0  0  0  0  0  0  0
    4.1797   18.2359  -50.7766 C   0  0  0  0  0  0  0  0  0  0  0  0
    3.1820   19.0994  -50.3363 C   0  0  0  0  0  0  0  0  0  0  0  0
    6.0820   16.6013  -51.4539 C   0  0  0  0  0  0  0  0  0  0  0  0
    2.4434   21.4900  -55.9382 H   0  0  0  0  0  0  0  0  0  0  0  0
   -1.3103   22.5159  -60.7744 H   0  0  0  0  0  0  0  0  0  0  0  0
   -0.4647   21.3312  -61.7409 H   0  0  0  0  0  0  0  0  0  0  0  0
    3.4164   22.8736  -61.4372 H   0  0  0  0  0  0  0  0  0  0  0  0
    2.4569   24.2394  -60.9205 H   0  0  0  0  0  0  0  0  0  0  0  0
   -0.3900   23.2585  -62.9178 H   0  0  0  0  0  0  0  0  0  0  0  0
    1.8570   23.7216  -63.1641 H   0  0  0  0  0  0  0  0  0  0  0  0
    1.6245   22.0359  -62.7679 H   0  0  0  0  0  0  0  0  0  0  0  0
    0.4481   24.7517  -60.5851 H   0  0  0  0  0  0  0  0  0  0  0  0
    0.3117   25.3894  -62.2061 H   0  0  0  0  0  0  0  0  0  0  0  0
   -1.1143   24.8342  -61.3629 H   0  0  0  0  0  0  0  0  0  0  0  0
    1.0084   20.6099  -53.7675 H   0  0  0  0  0  0  0  0  0  0  0  0
    1.5776   20.3795  -50.9507 H   0  0  0  0  0  0  0  0  0  0  0  0
    4.8252   17.7592  -50.0689 H   0  0  0  0  0  0  0  0  0  0  0  0
    3.0554   19.2907  -49.2912 H   0  0  0  0  0  0  0  0  0  0  0  0
    6.5447   17.3992  -50.9118 H   0  0  0  0  0  0  0  0  0  0  0  0
    6.8358   15.9445  -51.8347 H   0  0  0  0  0  0  0  0  0  0  0  0
    5.4312   16.0573  -50.8017 H   0  0  0  0  0  0  0  0  0  0  0  0
  1  2  1  0  0  0  0
  1  3  1  0  0  0  0
  2  4  2  0  0  0  0
  2  5  1  0  0  0  0
  3  6  2  0  0  0  0
  3  7  1  0  0  0  0
  5  8  1  0  0  0  0
  6  9  1  0  0  0  0
  7 10  1  0  0  0  0
  8 11  2  0  0  0  0
  8 12  1  0  0  0  0
  9 13  1  0  0  0  0
 10 14  1  0  0  0  0
 12 15  1  0  0  0  0
 12 16  2  0  0  0  0
 15 17  1  0  0  0  0
 16 18  1  0  0  0  0
 17 19  1  0  0  0  0
 18 20  1  0  0  0  0
 19 21  1  0  0  0  0
 19 22  2  0  0  0  0
 20 23  2  0  0  0  0
 21 24  1  0  0  0  0
  4  6  1  0  0  0  0
 10 13  1  0  0  0  0
 17 18  2  0  0  0  0
 22 23  1  0  0  0  0
  5 25  1  0  0  0  0
  7 26  1  0  0  0  0
  7 27  1  0  0  0  0
  9 28  1  0  0  0  0
  9 29  1  0  0  0  0
 10 30  1  0  0  0  0
 13 31  1  0  0  0  0
 13 32  1  0  0  0  0
 14 33  1  0  0  0  0
 14 34  1  0  0  0  0
 14 35  1  0  0  0  0
 16 36  1  0  0  0  0
 20 37  1  0  0  0  0
 22 38  1  0  0  0  0
 23 39  1  0  0  0  0
 24 40  1  0  0  0  0
 24 41  1  0  0  0  0
 24 42  1  0  0  0  0
M  CHG  1  10   1
M  END
>  <MolID>
HY-Q22629

>  <SMILES>
COc1cccc2cc(oc12)C(=O)Nc1nc2c(s1)C[N@@H+](C)CC2

>  <Total Molweight>
344.414

>  <Druglikeness>
3.0584

>  <Mutagenic>
none

>  <Tumorigenic>
none

>  <Reproductive Effective>
none

>  <Irritant>
none

>  <Score>
0.8516634

$$$$
HY-Q25598
Actelion Java MolfileCreator 1.0

 33 35  0  0  0  0  0  0  0  0999 V2000
    3.9789   17.9583  -49.9765 Br  0  0  0  0  0  0  0  0  0  0  0  0
    3.5359   18.5978  -51.7018 C   0  0  0  0  0  0  0  0  0  0  0  0
    2.6578   19.6876  -51.8461 C   0  0  0  0  0  0  0  0  0  0  0  0
    4.0665   17.9564  -52.8338 C   0  0  0  0  0  0  0  0  0  0  0  0
    2.2922   20.1208  -53.1338 C   0  0  0  0  0  0  0  0  0  0  0  0
    3.6825   18.3705  -54.1200 C   0  0  0  0  0  0  0  0  0  0  0  0
    2.7980   19.4565  -54.2728 C   0  0  0  0  0  0  0  0  0  0  0  0
    2.3734   19.8699  -55.6433 C   0  0  0  0  0  0  0  0  0  0  0  0
    1.9871   19.0303  -56.4573 O   0  0  0  0  0  0  0  0  0  0  0  0
    2.5208   21.1802  -55.8886 N   0  0  0  0  0  0  0  0  0  0  0  0
    2.1783   21.8649  -57.0741 C   0  0  0  0  0  0  0  0  0  0  0  0
    1.0082   21.5574  -57.7999 C   0  0  0  0  0  0  0  0  0  0  0  0
    3.0054   22.9173  -57.5024 C   0  0  0  0  0  0  0  0  0  0  0  0
    0.6857   22.2877  -58.9558 C   0  0  0  0  0  0  0  0  0  0  0  0
    2.6799   23.6523  -58.6586 C   0  0  0  0  0  0  0  0  0  0  0  0
    1.5236   23.3353  -59.4005 C   0  0  0  0  0  0  0  0  0  0  0  0
    1.2088   24.0650  -60.6307 C   0  0  0  0  0  0  0  0  0  0  0  0
    0.4742   23.4677  -61.5551 N   0  0  0  0  0  0  0  0  0  0  0  0
    1.6061   25.3753  -61.0375 C   0  0  0  0  0  0  0  0  0  0  0  0
    0.3862   24.3591  -62.5539 N   0  0  0  0  0  0  0  0  0  0  0  0
    1.0498   25.5299  -62.2768 C   0  0  0  0  0  0  0  0  0  0  0  0
    2.2543   20.1774  -50.9719 H   0  0  0  0  0  0  0  0  0  0  0  0
    4.7427   17.1222  -52.7162 H   0  0  0  0  0  0  0  0  0  0  0  0
    1.5990   20.9446  -53.2386 H   0  0  0  0  0  0  0  0  0  0  0  0
    4.0680   17.8541  -54.9873 H   0  0  0  0  0  0  0  0  0  0  0  0
    3.0003   21.7181  -55.1824 H   0  0  0  0  0  0  0  0  0  0  0  0
    0.3572   20.7589  -57.4804 H   0  0  0  0  0  0  0  0  0  0  0  0
    3.9028   23.1590  -56.9513 H   0  0  0  0  0  0  0  0  0  0  0  0
   -0.2113   22.0295  -59.4997 H   0  0  0  0  0  0  0  0  0  0  0  0
    3.3308   24.4516  -58.9805 H   0  0  0  0  0  0  0  0  0  0  0  0
    2.2006   26.0966  -60.4964 H   0  0  0  0  0  0  0  0  0  0  0  0
   -0.1651   24.1324  -63.3927 H   0  0  0  0  0  0  0  0  0  0  0  0
    1.0703   26.3587  -62.9673 H   0  0  0  0  0  0  0  0  0  0  0  0
  1  2  1  0  0  0  0
  2  3  2  0  0  0  0
  2  4  1  0  0  0  0
  3  5  1  0  0  0  0
  4  6  2  0  0  0  0
  5  7  2  0  0  0  0
  7  8  1  0  0  0  0
  8  9  2  0  0  0  0
  8 10  1  0  0  0  0
 10 11  1  0  0  0  0
 11 12  2  0  0  0  0
 11 13  1  0  0  0  0
 12 14  1  0  0  0  0
 13 15  2  0  0  0  0
 14 16  2  0  0  0  0
 16 17  1  0  0  0  0
 17 18  2  0  0  0  0
 17 19  1  0  0  0  0
 18 20  1  0  0  0  0
 19 21  2  0  0  0  0
  6  7  1  0  0  0  0
 15 16  1  0  0  0  0
 20 21  1  0  0  0  0
  3 22  1  0  0  0  0
  4 23  1  0  0  0  0
  5 24  1  0  0  0  0
  6 25  1  0  0  0  0
 10 26  1  0  0  0  0
 12 27  1  0  0  0  0
 13 28  1  0  0  0  0
 14 29  1  0  0  0  0
 15 30  1  0  0  0  0
 19 31  1  0  0  0  0
 20 32  1  0  0  0  0
 21 33  1  0  0  0  0
M  END
>  <MolID>
HY-Q25598

>  <SMILES>
Brc1ccc(cc1)C(=O)Nc1ccc(cc1)c1cc[nH]n1

>  <Total Molweight>
342.195

>  <Druglikeness>
0.78021

>  <Mutagenic>
low

>  <Tumorigenic>
none

>  <Reproductive Effective>
none

>  <Irritant>
none

>  <Score>
0.8501

$$$$
HY-Q23976
Actelion Java MolfileCreator 1.0

 22 24  0  0  0  0  0  0  0  0999 V2000
   -1.2311   21.8755  -59.2961 Cl  0  0  0  0  0  0  0  0  0  0  0  0
    0.3008   22.7665  -59.1311 C   0  0  0  0  0  0  0  0  0  0  0  0
    1.2968   22.2835  -58.2891 C   0  0  0  0  0  0  0  0  0  0  0  0
    0.4948   23.9435  -59.8470 C   0  0  0  0  0  0  0  0  0  0  0  0
    1.0887   21.1106  -57.5831 O   0  0  0  0  0  0  0  0  0  0  0  0
    2.4927   22.9786  -58.1581 C   0  0  0  0  0  0  0  0  0  0  0  0
    1.6947   24.6335  -59.7120 C   0  0  0  0  0  0  0  0  0  0  0  0
    0.9217   21.2717  -56.2221 C   0  0  0  0  0  0  0  0  0  0  0  0
    2.6927   24.1556  -58.8719 C   0  0  0  0  0  0  0  0  0  0  0  0
    1.6616   20.1877  -55.4961 C   0  0  0  0  0  0  0  0  0  0  0  0
    1.7455   19.0448  -55.9570 O   0  0  0  0  0  0  0  0  0  0  0  0
    2.1895   20.6427  -54.3221 N   0  0  0  0  0  0  0  0  0  0  0  0
    2.9464   19.8049  -53.4331 C   0  0  0  0  0  0  0  0  0  0  0  0
    1.9584   22.0457  -53.9531 C   0  0  0  0  0  0  0  0  0  0  0  0
    2.9744   20.1229  -52.0781 C   0  0  0  0  0  0  0  0  0  0  0  0
    3.6574   18.6880  -53.8710 C   0  0  0  0  0  0  0  0  0  0  0  0
    1.7574   22.1709  -52.4511 C   0  0  0  0  0  0  0  0  0  0  0  0
    2.2214   21.2519  -51.6200 N   0  0  0  0  0  0  0  0  0  0  0  0
    3.7103   19.3520  -51.1850 C   0  0  0  0  0  0  0  0  0  0  0  0
    4.3863   17.9020  -52.9880 C   0  0  0  0  0  0  0  0  0  0  0  0
    1.1485   23.1468  -52.0000 O   0  0  0  0  0  0  0  0  0  0  0  0
    4.4123   18.2411  -51.6400 C   0  0  0  0  0  0  0  0  0  0  0  0
  1  2  1  0  0  0  0
  2  3  2  0  0  0  0
  2  4  1  0  0  0  0
  3  5  1  0  0  0  0
  3  6  1  0  0  0  0
  4  7  2  0  0  0  0
  5  8  1  0  0  0  0
  6  9  2  0  0  0  0
  8 10  1  0  0  0  0
 10 11  2  0  0  0  0
 10 12  1  0  0  0  0
 12 13  1  0  0  0  0
 12 14  1  0  0  0  0
 13 15  2  0  0  0  0
 13 16  1  0  0  0  0
 14 17  1  0  0  0  0
 15 18  1  0  0  0  0
 15 19  1  0  0  0  0
 16 20  2  0  0  0  0
 17 21  2  0  0  0  0
 19 22  2  0  0  0  0
  7  9  1  0  0  0  0
 17 18  1  0  0  0  0
 20 22  1  0  0  0  0
M  END
>  <MolID>
HY-Q23976

>  <SMILES>
C(=O)(N1CC(=O)Nc2ccccc12)COc1c(Cl)cccc1

>  <Total Molweight>
316.743

>  <Druglikeness>
3.6399

>  <Mutagenic>
none

>  <Tumorigenic>
none

>  <Reproductive Effective>
none

>  <Irritant>
low

>  <Score>
0.8472767

$$$$
HY-Q39352
Actelion Java MolfileCreator 1.0

 40 43  0  0  0  0  0  0  0  0999 V2000
    3.2083   23.7651  -58.8064 O   0  0  0  0  0  0  0  0  0  0  0  0
    2.3434   22.9298  -58.1514 C   0  0  0  0  0  0  0  0  0  0  0  0
    3.6104   23.2910  -60.0831 C   0  0  0  0  0  0  0  0  0  0  0  0
    1.0004   22.8066  -58.5773 C   0  0  0  0  0  0  0  0  0  0  0  0
    2.8033   22.2189  -57.0243 C   0  0  0  0  0  0  0  0  0  0  0  0
    0.6131   23.5871  -59.6427 O   0  0  0  0  0  0  0  0  0  0  0  0
    0.1261   21.9457  -57.8688 C   0  0  0  0  0  0  0  0  0  0  0  0
    1.9275   21.3516  -56.3416 C   0  0  0  0  0  0  0  0  0  0  0  0
   -0.6694   23.3845  -60.2034 C   0  0  0  0  0  0  0  0  0  0  0  0
    0.5890   21.2360  -56.7466 C   0  0  0  0  0  0  0  0  0  0  0  0
    2.3858   20.5409  -55.2056 C   0  0  0  0  0  0  0  0  0  0  0  0
    2.5772   21.0813  -54.0521 N   0  0  0  0  0  0  0  0  0  0  0  0
    2.5964   19.0601  -55.4153 C   0  0  0  0  0  0  0  0  0  0  0  0
    2.9832   20.3080  -52.9357 C   0  0  0  0  0  0  0  0  0  0  0  0
    2.4142   18.3688  -56.4849 N   0  0  0  0  0  0  0  0  0  0  0  0
    3.0415   18.3796  -54.3196 N   0  0  0  0  0  0  0  0  0  0  0  0
    3.2648   18.9208  -53.0538 C   0  0  0  0  0  0  0  0  0  0  0  0
    3.1477   20.9305  -51.6834 C   0  0  0  0  0  0  0  0  0  0  0  0
    2.7788   16.9993  -56.1641 C   0  0  0  0  0  0  0  0  0  0  0  0
    3.1401   16.9848  -54.6646 C   0  0  0  0  0  0  0  0  0  0  0  0
    3.7467   18.1853  -51.9533 C   0  0  0  0  0  0  0  0  0  0  0  0
    3.6082   20.1885  -50.5775 C   0  0  0  0  0  0  0  0  0  0  0  0
    3.9080   18.8193  -50.7094 C   0  0  0  0  0  0  0  0  0  0  0  0
    4.1446   22.3466  -59.9922 H   0  0  0  0  0  0  0  0  0  0  0  0
    4.2839   24.0102  -60.5451 H   0  0  0  0  0  0  0  0  0  0  0  0
    2.7745   23.1473  -60.7644 H   0  0  0  0  0  0  0  0  0  0  0  0
    3.8329   22.3210  -56.7102 H   0  0  0  0  0  0  0  0  0  0  0  0
   -0.9082   21.8270  -58.1516 H   0  0  0  0  0  0  0  0  0  0  0  0
   -0.7556   22.3986  -60.6612 H   0  0  0  0  0  0  0  0  0  0  0  0
   -0.7917   24.1373  -60.9778 H   0  0  0  0  0  0  0  0  0  0  0  0
   -1.4708   23.5188  -59.4812 H   0  0  0  0  0  0  0  0  0  0  0  0
   -0.0850   20.5965  -56.1901 H   0  0  0  0  0  0  0  0  0  0  0  0
    2.9410   21.9857  -51.5695 H   0  0  0  0  0  0  0  0  0  0  0  0
    3.6230   16.6740  -56.7751 H   0  0  0  0  0  0  0  0  0  0  0  0
    1.9424   16.3386  -56.3728 H   0  0  0  0  0  0  0  0  0  0  0  0
    2.4229   16.3976  -54.0885 H   0  0  0  0  0  0  0  0  0  0  0  0
    4.1462   16.5998  -54.4943 H   0  0  0  0  0  0  0  0  0  0  0  0
    4.0073   17.1462  -52.0548 H   0  0  0  0  0  0  0  0  0  0  0  0
    3.7423   20.6784  -49.6240 H   0  0  0  0  0  0  0  0  0  0  0  0
    4.2703   18.2613  -49.8587 H   0  0  0  0  0  0  0  0  0  0  0  0
  1  2  1  0  0  0  0
  1  3  1  0  0  0  0
  2  4  2  0  0  0  0
  2  5  1  0  0  0  0
  4  6  1  0  0  0  0
  4  7  1  0  0  0  0
  5  8  2  0  0  0  0
  6  9  1  0  0  0  0
  7 10  2  0  0  0  0
  8 11  1  0  0  0  0
 11 12  2  0  0  0  0
 11 13  1  0  0  0  0
 12 14  1  0  0  0  0
 13 15  2  0  0  0  0
 13 16  1  0  0  0  0
 14 17  2  0  0  0  0
 14 18  1  0  0  0  0
 15 19  1  0  0  0  0
 16 20  1  0  0  0  0
 17 21  1  0  0  0  0
 18 22  2  0  0  0  0
 21 23  2  0  0  0  0
  8 10  1  0  0  0  0
 16 17  1  0  0  0  0
 19 20  1  0  0  0  0
 22 23  1  0  0  0  0
  3 24  1  0  0  0  0
  3 25  1  0  0  0  0
  3 26  1  0  0  0  0
  5 27  1  0  0  0  0
  7 28  1  0  0  0  0
  9 29  1  0  0  0  0
  9 30  1  0  0  0  0
  9 31  1  0  0  0  0
 10 32  1  0  0  0  0
 18 33  1  0  0  0  0
 19 34  1  0  0  0  0
 19 35  1  0  0  0  0
 20 36  1  0  0  0  0
 20 37  1  0  0  0  0
 21 38  1  0  0  0  0
 22 39  1  0  0  0  0
 23 40  1  0  0  0  0
M  END
>  <MolID>
HY-Q39352

>  <SMILES>
COc1ccc(cc1OC)c1nc2ccccc2n2CCN=c12

>  <Total Molweight>
307.352

>  <Druglikeness>
3.3427

>  <Mutagenic>
none

>  <Tumorigenic>
none

>  <Reproductive Effective>
none

>  <Irritant>
none

>  <Score>
0.8402166

$$$$
HY-Q06060
Actelion Java MolfileCreator 1.0

 29 32  0  0  0  0  0  0  0  0999 V2000
   -0.5326   21.8168  -56.0845 O   0  0  0  0  0  0  0  0  0  0  0  0
    0.4164   21.1118  -56.4115 C   0  0  0  0  0  0  0  0  0  0  0  0
    0.9344   21.1189  -57.6404 N   0  0  0  0  0  0  0  0  0  0  0  0
    1.1344   20.1519  -55.5085 C   0  0  0  0  0  0  0  0  0  0  0  0
    0.4743   21.9249  -58.7343 C   0  0  0  0  0  0  0  0  0  0  0  0
    1.8854   20.9179  -54.4604 C   0  0  0  0  0  0  0  0  0  0  0  0
    1.1773   23.0739  -59.0823 C   0  0  0  0  0  0  0  0  0  0  0  0
   -0.6697   21.5469  -59.4303 C   0  0  0  0  0  0  0  0  0  0  0  0
    2.6492   19.9380  -53.6735 N   0  0  0  0  0  0  0  0  0  0  0  0
    0.9113   21.6799  -53.5735 C   0  0  0  0  0  0  0  0  0  0  0  0
    2.8112   21.9259  -55.1224 C   0  0  0  0  0  0  0  0  0  0  0  0
    0.7223   23.8480  -60.1452 C   0  0  0  0  0  0  0  0  0  0  0  0
   -1.1067   22.3370  -60.4892 C   0  0  0  0  0  0  0  0  0  0  0  0
    3.7193   19.1940  -54.1415 C   0  0  0  0  0  0  0  0  0  0  0  0
    2.4103   19.6140  -52.3485 C   0  0  0  0  0  0  0  0  0  0  0  0
    1.6553   22.5569  -52.5734 C   0  0  0  0  0  0  0  0  0  0  0  0
    3.5123   22.7620  -54.0615 C   0  0  0  0  0  0  0  0  0  0  0  0
    1.4713   25.0740  -60.5212 C   0  0  0  0  0  0  0  0  0  0  0  0
   -0.4188   23.4880  -60.8552 C   0  0  0  0  0  0  0  0  0  0  0  0
    4.1531   18.4041  -53.1165 C   0  0  0  0  0  0  0  0  0  0  0  0
    3.3223   18.6701  -51.9785 C   0  0  0  0  0  0  0  0  0  0  0  0
    2.5852   23.4280  -53.2105 O   0  0  0  0  0  0  0  0  0  0  0  0
    2.2842   25.7290  -59.7272 N   0  0  0  0  0  0  0  0  0  0  0  0
    1.4102   25.6930  -61.7571 N   0  0  0  0  0  0  0  0  0  0  0  0
    2.7731   26.7890  -60.4311 N   0  0  0  0  0  0  0  0  0  0  0  0
    2.2051   26.7330  -61.6911 C   0  0  0  0  0  0  0  0  0  0  0  0
    2.4631   27.7201  -62.8190 C   0  0  0  0  0  0  0  0  0  0  0  0
    3.6690   27.2841  -63.5970 C   0  0  0  0  0  0  0  0  0  0  0  0
    1.2711   27.7641  -63.7270 C   0  0  0  0  0  0  0  0  0  0  0  0
  1  2  2  0  0  0  0
  2  3  1  0  0  0  0
  2  4  1  0  0  0  0
  3  5  1  0  0  0  0
  4  6  1  0  0  0  0
  5  7  2  0  0  0  0
  5  8  1  0  0  0  0
  6  9  1  0  0  0  0
  6 10  1  0  0  0  0
  6 11  1  0  0  0  0
  7 12  1  0  0  0  0
  8 13  2  0  0  0  0
  9 14  1  0  0  0  0
  9 15  1  0  0  0  0
 10 16  1  0  0  0  0
 11 17  1  0  0  0  0
 12 18  1  0  0  0  0
 12 19  2  0  0  0  0
 14 20  2  0  0  0  0
 15 21  2  0  0  0  0
 16 22  1  0  0  0  0
 18 23  2  0  0  0  0
 18 24  1  0  0  0  0
 23 25  1  0  0  0  0
 24 26  2  0  0  0  0
 26 27  1  0  0  0  0
 27 28  1  0  0  0  0
 27 29  1  0  0  0  0
 13 19  1  0  0  0  0
 17 22  1  0  0  0  0
 20 21  1  0  0  0  0
 25 26  1  0  0  0  0
M  END
>  <MolID>
HY-Q06060

>  <SMILES>
N(C(=O)CC1(CCOCC1)n1cccc1)c1cccc(c1)c1n[nH]c(n1)C(C)C

>  <Total Molweight>
393.489

>  <Druglikeness>
0.086913

>  <Mutagenic>
none

>  <Tumorigenic>
none

>  <Reproductive Effective>
low

>  <Irritant>
none

>  <Score>
0.8335167

$$$$
HY-Q30356
Actelion Java MolfileCreator 1.0

 34 36  0  0  0  0  0  0  0  0999 V2000
    0.8132   21.5541  -53.4049 Cl  0  0  0  0  0  0  0  0  0  0  0  0
    1.9250   20.2889  -52.8268 C   0  0  0  0  0  0  0  0  0  0  0  0
    2.6732   19.5085  -53.6945 C   0  0  0  0  0  0  0  0  0  0  0  0
    2.1022   20.0235  -51.4781 C   0  0  0  0  0  0  0  0  0  0  0  0
    2.6449   19.6417  -55.4083 S   0  0  0  0  0  0  0  0  0  0  0  0
    3.5702   18.5045  -53.4073 C   0  0  0  0  0  0  0  0  0  0  0  0
    2.9873   19.0213  -51.0934 C   0  0  0  0  0  0  0  0  0  0  0  0
    3.7856   18.3858  -55.6914 C   0  0  0  0  0  0  0  0  0  0  0  0
    4.1600   17.9112  -54.5273 N   0  0  0  0  0  0  0  0  0  0  0  0
    3.6976   18.2864  -52.0386 C   0  0  0  0  0  0  0  0  0  0  0  0
    4.2361   17.9599  -56.9841 N   0  0  0  0  0  0  0  0  0  0  0  0
    4.5558   17.3078  -51.5722 O   0  0  0  0  0  0  0  0  0  0  0  0
    5.2080   16.8897  -57.2222 C   0  0  0  0  0  0  0  0  0  0  0  0
    3.7585   18.5200  -58.2545 C   0  0  0  0  0  0  0  0  0  0  0  0
    5.1088   17.5592  -50.3330 C   0  0  0  0  0  0  0  0  0  0  0  0
    5.0909   15.7711  -56.2298 C   0  0  0  0  0  0  0  0  0  0  0  0
    4.8613   16.4530  -58.6260 C   0  0  0  0  0  0  0  0  0  0  0  0
    4.5259   17.7619  -59.3166 C   0  0  0  0  0  0  0  0  0  0  0  0
    5.6921   15.7054  -55.1616 O   0  0  0  0  0  0  0  0  0  0  0  0
    4.2413   14.8296  -56.6418 N   0  0  0  0  0  0  0  0  0  0  0  0
    1.5645   20.5828  -50.7411 H   0  0  0  0  0  0  0  0  0  0  0  0
    3.1244   18.8118  -50.0530 H   0  0  0  0  0  0  0  0  0  0  0  0
    6.2001   17.2900  -57.2017 H   0  0  0  0  0  0  0  0  0  0  0  0
    3.9711   19.5674  -58.3097 H   0  0  0  0  0  0  0  0  0  0  0  0
    2.7056   18.3636  -58.3647 H   0  0  0  0  0  0  0  0  0  0  0  0
    5.6724   18.4681  -50.3718 H   0  0  0  0  0  0  0  0  0  0  0  0
    5.7541   16.7506  -50.0596 H   0  0  0  0  0  0  0  0  0  0  0  0
    4.3285   17.6542  -49.6067 H   0  0  0  0  0  0  0  0  0  0  0  0
    4.0203   15.7915  -58.6264 H   0  0  0  0  0  0  0  0  0  0  0  0
    5.6938   15.9725  -59.0960 H   0  0  0  0  0  0  0  0  0  0  0  0
    3.9207   17.5954  -60.1832 H   0  0  0  0  0  0  0  0  0  0  0  0
    5.4146   18.2874  -59.5978 H   0  0  0  0  0  0  0  0  0  0  0  0
    3.7744   14.9275  -57.5207 H   0  0  0  0  0  0  0  0  0  0  0  0
    4.0710   14.0258  -56.0717 H   0  0  0  0  0  0  0  0  0  0  0  0
  1  2  1  0  0  0  0
  2  3  2  0  0  0  0
  2  4  1  0  0  0  0
  3  5  1  0  0  0  0
  3  6  1  0  0  0  0
  4  7  2  0  0  0  0
  5  8  1  0  0  0  0
  6  9  1  0  0  0  0
  6 10  2  0  0  0  0
  8 11  1  0  0  0  0
 10 12  1  0  0  0  0
 11 13  1  0  0  0  0
 11 14  1  0  0  0  0
 12 15  1  0  0  0  0
 13 16  1  0  0  0  0
 13 17  1  0  0  0  0
 14 18  1  0  0  0  0
 16 19  2  0  0  0  0
 16 20  1  0  0  0  0
  7 10  1  0  0  0  0
  8  9  2  0  0  0  0
 17 18  1  0  0  0  0
  4 21  1  0  0  0  0
  7 22  1  0  0  0  0
 13 23  1  0  0  0  0
 14 24  1  0  0  0  0
 14 25  1  0  0  0  0
 15 26  1  0  0  0  0
 15 27  1  0  0  0  0
 15 28  1  0  0  0  0
 17 29  1  0  0  0  0
 17 30  1  0  0  0  0
 18 31  1  0  0  0  0
 18 32  1  0  0  0  0
 20 33  1  0  0  0  0
 20 34  1  0  0  0  0
M  END
>  <MolID>
HY-Q30356

>  <SMILES>
COc1ccc(c2sc(nc12)N1CCC[C@@H]1C(=O)N)Cl

>  <Total Molweight>
311.792

>  <Druglikeness>
5.5637

>  <Mutagenic>
none

>  <Tumorigenic>
none

>  <Reproductive Effective>
none

>  <Irritant>
none

>  <Score>
0.83297

$$$$
HY-Q02072
Actelion Java MolfileCreator 1.0

 22 24  0  0  1  0  0  0  0  0999 V2000
    3.1425   18.5020  -50.9134 Br  0  0  0  0  0  0  0  0  0  0  0  0
    2.4535   19.7460  -52.2623 C   0  0  0  0  0  0  0  0  0  0  0  0
    2.4194   19.3520  -53.5952 C   0  0  0  0  0  0  0  0  0  0  0  0
    2.0084   21.0060  -51.8764 C   0  0  0  0  0  0  0  0  0  0  0  0
    1.9294   20.2390  -54.5491 C   0  0  0  0  0  0  0  0  0  0  0  0
    1.5234   21.8770  -52.8463 C   0  0  0  0  0  0  0  0  0  0  0  0
    1.8863   19.8311  -55.9760 C   0  0  0  0  0  0  0  0  0  0  0  0
    1.4794   21.5040  -54.1841 C   0  0  0  0  0  0  0  0  0  0  0  0
    1.9283   18.6742  -56.3839 O   0  0  0  0  0  0  0  0  0  0  0  0
    1.7953   20.8831  -56.7899 N   0  0  0  0  0  0  0  0  0  0  0  0
    1.7322   20.8251  -58.2468 C   0  0  0  0  0  0  0  0  0  0  0  0
    0.6853   21.7781  -58.7406 C   0  0  0  0  0  0  0  0  0  0  0  0
   -0.2607   21.9442  -57.6937 O   0  0  0  0  0  0  0  0  0  0  0  0
    1.2722   23.0991  -59.1996 C   0  0  0  0  0  0  0  0  0  0  0  0
    0.1143   21.1322  -59.9895 C   0  0  0  0  0  0  0  0  0  0  0  0
    0.5022   23.8681  -60.0635 C   0  0  0  0  0  0  0  0  0  0  0  0
    2.5320   23.5471  -58.7985 C   0  0  0  0  0  0  0  0  0  0  0  0
   -0.8947   22.0072  -60.7254 C   0  0  0  0  0  0  0  0  0  0  0  0
   -0.7388   23.3941  -60.4544 O   0  0  0  0  0  0  0  0  0  0  0  0
    1.0251   25.0781  -60.5034 C   0  0  0  0  0  0  0  0  0  0  0  0
    3.0530   24.7551  -59.2416 C   0  0  0  0  0  0  0  0  0  0  0  0
    2.2820   25.5241  -60.1064 C   0  0  0  0  0  0  0  0  0  0  0  0
  1  2  1  0  0  0  0
  2  3  2  0  0  0  0
  2  4  1  0  0  0  0
  3  5  1  0  0  0  0
  4  6  2  0  0  0  0
  5  7  1  0  0  0  0
  5  8  2  0  0  0  0
  7  9  2  0  0  0  0
  7 10  1  0  0  0  0
 10 11  1  0  0  0  0
 11 12  1  0  0  0  0
 12 13  1  0  0  0  0
 12 14  1  0  0  0  0
 12 15  1  0  0  0  0
 14 16  2  0  0  0  0
 14 17  1  0  0  0  0
 15 18  1  0  0  0  0
 16 19  1  0  0  0  0
 16 20  1  0  0  0  0
 17 21  2  0  0  0  0
 20 22  2  0  0  0  0
  6  8  1  0  0  0  0
 18 19  1  0  0  0  0
 21 22  1  0  0  0  0
M  END
>  <MolID>
HY-Q02072

>  <SMILES>
[C@]1(CCOc2ccccc12)(O)CNC(=O)c1cccc(c1)Br

>  <Total Molweight>
362.222

>  <Druglikeness>
1.0528

>  <Mutagenic>
none

>  <Tumorigenic>
none

>  <Reproductive Effective>
none

>  <Irritant>
none

>  <Score>
0.8271833

$$$$
HY-Q12184
Actelion Java MolfileCreator 1.0

 30 34  0  0  0  0  0  0  0  0999 V2000
    6.8963   25.9870  -60.6057 O   0  0  0  0  0  0  0  0  0  0  0  0
    5.6402   25.4911  -60.8846 C   0  0  0  0  0  0  0  0  0  0  0  0
    7.8242   25.0880  -61.1786 C   0  0  0  0  0  0  0  0  0  0  0  0
    5.7632   24.6211  -61.9296 C   0  0  0  0  0  0  0  0  0  0  0  0
    4.3782   25.7151  -60.3416 C   0  0  0  0  0  0  0  0  0  0  0  0
    7.0952   24.5901  -62.2855 O   0  0  0  0  0  0  0  0  0  0  0  0
    4.6341   23.9742  -62.4255 C   0  0  0  0  0  0  0  0  0  0  0  0
    3.2342   25.0822  -60.8255 C   0  0  0  0  0  0  0  0  0  0  0  0
    3.3671   24.1962  -61.8884 C   0  0  0  0  0  0  0  0  0  0  0  0
    1.8822   25.3462  -60.2315 C   0  0  0  0  0  0  0  0  0  0  0  0
    1.5071   24.2293  -59.3514 N   0  0  0  0  0  4  0  0  0  0  0  0
    2.6761   23.7074  -58.6314 C   0  0  0  0  0  0  0  0  0  0  0  0
    0.8521   23.1663  -60.1214 C   0  0  0  0  0  0  0  0  0  0  0  0
    2.3600   22.4734  -57.8914 N   0  0  0  0  0  0  0  0  0  0  0  0
    0.4330   22.1803  -59.1264 N   0  0  0  0  0  0  0  0  0  0  0  0
    1.3139   21.7735  -58.1643 C   0  0  0  0  0  0  0  0  0  0  0  0
    1.0779   20.5365  -57.4262 N   0  0  0  0  0  0  0  0  0  0  0  0
    1.5419   20.4066  -56.0743 C   0  0  0  0  0  0  0  0  0  0  0  0
    1.7938   19.1916  -55.5621 N   0  0  0  0  0  0  0  0  0  0  0  0
    1.7318   21.4906  -55.3073 N   0  0  0  0  0  0  0  0  0  0  0  0
    2.2307   19.0086  -54.3042 C   0  0  0  0  0  0  0  0  0  0  0  0
    2.1648   21.3876  -54.0432 C   0  0  0  0  0  0  0  0  0  0  0  0
    2.4277   20.1287  -53.5042 C   0  0  0  0  0  0  0  0  0  0  0  0
    2.4887   17.7406  -53.7831 C   0  0  0  0  0  0  0  0  0  0  0  0
    2.3487   22.6746  -53.2522 C   0  0  0  0  0  0  0  0  0  0  0  0
    2.8816   19.9527  -52.1971 C   0  0  0  0  0  0  0  0  0  0  0  0
    2.9426   17.5708  -52.4791 C   0  0  0  0  0  0  0  0  0  0  0  0
    2.2896   16.4867  -54.6191 C   0  0  0  0  0  0  0  0  0  0  0  0
    3.1416   18.6897  -51.6781 C   0  0  0  0  0  0  0  0  0  0  0  0
    3.6364   18.5677  -50.2459 C   0  0  0  0  0  0  0  0  0  0  0  0
  1  2  1  0  0  0  0
  1  3  1  0  0  0  0
  2  4  2  0  0  0  0
  2  5  1  0  0  0  0
  3  6  1  0  0  0  0
  4  7  1  0  0  0  0
  5  8  2  0  0  0  0
  7  9  2  0  0  0  0
  8 10  1  0  0  0  0
 10 11  1  0  0  0  0
 11 12  1  0  0  0  0
 11 13  1  0  0  0  0
 12 14  1  0  0  0  0
 13 15  1  0  0  0  0
 14 16  2  0  0  0  0
 16 17  1  0  0  0  0
 17 18  1  0  0  0  0
 18 19  2  0  0  0  0
 18 20  1  0  0  0  0
 19 21  1  0  0  0  0
 20 22  2  0  0  0  0
 21 23  2  0  0  0  0
 21 24  1  0  0  0  0
 22 25  1  0  0  0  0
 23 26  1  0  0  0  0
 24 27  2  0  0  0  0
 24 28  1  0  0  0  0
 26 29  2  0  0  0  0
 29 30  1  0  0  0  0
  4  6  1  0  0  0  0
  8  9  1  0  0  0  0
 15 16  1  0  0  0  0
 22 23  1  0  0  0  0
 27 29  1  0  0  0  0
M  END
>  <MolID>
HY-Q12184

>  <SMILES>
c1(nc(C)c2c(c(C)cc(C)c2)n1)NC1=NCN(CN1)Cc1ccc2OCOc2c1

>  <Total Molweight>
405.48

>  <Druglikeness>
2.7101

>  <Mutagenic>
none

>  <Tumorigenic>
none

>  <Reproductive Effective>
none

>  <Irritant>
none

>  <Score>
0.8247434

$$$$
